* SPICE NETLIST
***************************************

.SUBCKT mux21 Y A0 A1 S0 GND VDD
** N=11 EP=6 IP=0 FDC=10
* PORT Y Y 7500 52500 METAL2
* PORT A0 A0 19000 52500 METAL2
* PORT A1 A1 28000 52500 METAL2
* PORT S0 S0 39500 52500 METAL2
* PORT GND GND 26750 5000 METAL1
* PORT VDD VDD 26750 115000 METAL1
M0 8 7 GND GND N L=1.8e-07 W=9.9e-07 AD=3.564e-13 AS=5.6295e-13 $X=11500 $Y=24000 $D=1
M1 Y A0 8 GND N L=1.8e-07 W=9.9e-07 AD=5.346e-13 AS=3.564e-13 $X=17500 $Y=24000 $D=1
M2 9 A1 Y GND N L=1.8e-07 W=9.9e-07 AD=3.564e-13 AS=5.346e-13 $X=25500 $Y=24000 $D=1
M3 GND S0 9 GND N L=1.8e-07 W=9.9e-07 AD=6.0345e-13 AS=3.564e-13 $X=31500 $Y=24000 $D=1
M4 7 S0 GND GND N L=1.8e-07 W=4.5e-07 AD=2.2275e-13 AS=6.0345e-13 $X=40000 $Y=30000 $D=1
M5 10 7 VDD VDD P L=1.8e-07 W=1.98e-06 AD=7.128e-13 AS=9.9225e-13 $X=11500 $Y=73000 $D=0
M6 Y A1 10 VDD P L=1.8e-07 W=1.98e-06 AD=1.0692e-12 AS=7.128e-13 $X=17500 $Y=73000 $D=0
M7 11 A0 Y VDD P L=1.8e-07 W=1.98e-06 AD=7.128e-13 AS=1.0692e-12 $X=25500 $Y=73000 $D=0
M8 VDD S0 11 VDD P L=1.8e-07 W=1.98e-06 AD=1.1421e-12 AS=7.128e-13 $X=31500 $Y=73000 $D=0
M9 7 S0 VDD VDD P L=1.8e-07 W=9.9e-07 AD=4.9005e-13 AS=1.1421e-12 $X=40000 $Y=73000 $D=0
.ENDS
***************************************
.SUBCKT inv01 A Y GND VDD
** N=4 EP=4 IP=0 FDC=2
* PORT A A 10000 52500 METAL2
* PORT Y Y 19000 52500 METAL2
* PORT GND GND 12500 5000 METAL1
* PORT VDD VDD 12500 115000 METAL1
M0 Y A GND GND N L=1.8e-07 W=4.5e-07 AD=2.2275e-13 AS=2.9565e-13 $X=11500 $Y=26000 $D=1
M1 Y A VDD VDD P L=1.8e-07 W=9.9e-07 AD=4.9005e-13 AS=5.6295e-13 $X=11500 $Y=80000 $D=0
.ENDS
***************************************
.SUBCKT nor02ii A1 A0 Y VDD GND
** N=7 EP=5 IP=0 FDC=6
* PORT A1 A1 14000 52500 METAL2
* PORT A0 A0 23000 52500 METAL2
* PORT Y Y 33500 52500 METAL2
* PORT VDD VDD 20500 115000 METAL1
* PORT GND GND 20500 5000 METAL1
M0 GND A1 6 GND N L=1.8e-07 W=4.5e-07 AD=3.078e-13 AS=2.2275e-13 $X=11500 $Y=26000 $D=1
M1 Y A0 GND GND N L=1.8e-07 W=4.5e-07 AD=2.43e-13 AS=3.078e-13 $X=19500 $Y=26000 $D=1
M2 GND 6 Y GND N L=1.8e-07 W=4.5e-07 AD=2.9565e-13 AS=2.43e-13 $X=27500 $Y=26000 $D=1
M3 VDD A1 6 VDD P L=1.8e-07 W=9.9e-07 AD=9.1935e-13 AS=4.9005e-13 $X=11500 $Y=72000 $D=0
M4 7 A0 VDD VDD P L=1.8e-07 W=1.53e-06 AD=5.508e-13 AS=9.1935e-13 $X=20000 $Y=72000 $D=0
M5 Y 6 7 VDD P L=1.8e-07 W=1.53e-06 AD=7.5735e-13 AS=5.508e-13 $X=26000 $Y=72000 $D=0
.ENDS
***************************************
.SUBCKT xnor2 A0 A1 Y GND VDD
** N=9 EP=5 IP=0 FDC=10
* PORT A0 A0 14000 52500 METAL2
* PORT A1 A1 36500 52500 METAL2
* PORT Y Y 56500 52500 METAL2
* PORT GND GND 31500 5000 METAL1
* PORT VDD VDD 31500 115000 METAL1
M0 8 A0 6 GND N L=1.8e-07 W=9.9e-07 AD=3.564e-13 AS=4.9005e-13 $X=11500 $Y=23000 $D=1
M1 GND A1 8 GND N L=1.8e-07 W=9.9e-07 AD=5.6295e-13 AS=3.564e-13 $X=17500 $Y=23000 $D=1
M2 Y A1 7 GND N L=1.8e-07 W=9.9e-07 AD=5.346e-13 AS=4.9005e-13 $X=33500 $Y=23000 $D=1
M3 7 A0 Y GND N L=1.8e-07 W=9.9e-07 AD=5.346e-13 AS=5.346e-13 $X=41500 $Y=23000 $D=1
M4 GND 6 7 GND N L=1.8e-07 W=9.9e-07 AD=5.6295e-13 AS=5.346e-13 $X=49500 $Y=23000 $D=1
M5 6 A0 VDD VDD P L=1.8e-07 W=1.53e-06 AD=8.262e-13 AS=8.3025e-13 $X=18500 $Y=65500 $D=0
M6 VDD A1 6 VDD P L=1.8e-07 W=1.53e-06 AD=1.6362e-12 AS=8.262e-13 $X=26500 $Y=65500 $D=0
M7 9 A0 VDD VDD P L=1.8e-07 W=2.88e-06 AD=1.0368e-12 AS=1.6362e-12 $X=35000 $Y=65500 $D=0
M8 Y A1 9 VDD P L=1.8e-07 W=2.88e-06 AD=1.52685e-12 AS=1.0368e-12 $X=41000 $Y=65500 $D=0
M9 VDD 6 Y VDD P L=1.8e-07 W=1.53e-06 AD=8.3025e-13 AS=1.52685e-12 $X=49500 $Y=65500 $D=0
.ENDS
***************************************
.SUBCKT nand02 A1 A0 Y GND VDD
** N=6 EP=5 IP=0 FDC=4
* PORT A1 A1 8500 52500 METAL2
* PORT A0 A0 17500 52500 METAL2
* PORT Y Y 26500 52500 METAL2
* PORT GND GND 16500 5000 METAL1
* PORT VDD VDD 16500 115000 METAL1
M0 6 A1 GND GND N L=1.8e-07 W=9.9e-07 AD=3.564e-13 AS=5.6295e-13 $X=11500 $Y=19000 $D=1
M1 Y A0 6 GND N L=1.8e-07 W=9.9e-07 AD=4.9005e-13 AS=3.564e-13 $X=17500 $Y=19000 $D=1
M2 Y A1 VDD VDD P L=1.8e-07 W=1.35e-06 AD=7.29e-13 AS=6.9255e-13 $X=11500 $Y=86000 $D=0
M3 VDD A0 Y VDD P L=1.8e-07 W=1.35e-06 AD=6.9255e-13 AS=7.29e-13 $X=19500 $Y=86000 $D=0
.ENDS
***************************************
.SUBCKT nor03 Y A2 A1 A0 GND VDD
** N=8 EP=6 IP=0 FDC=6
* PORT Y Y 7500 52500 METAL2
* PORT A2 A2 16500 52500 METAL2
* PORT A1 A1 25500 52500 METAL2
* PORT A0 A0 34500 52500 METAL2
* PORT GND GND 20500 5000 METAL1
* PORT VDD VDD 20500 115000 METAL1
M0 Y A2 GND GND N L=1.8e-07 W=5.4e-07 AD=2.916e-13 AS=3.2805e-13 $X=11500 $Y=25000 $D=1
M1 GND A1 Y GND N L=1.8e-07 W=5.4e-07 AD=3.564e-13 AS=2.916e-13 $X=19500 $Y=25000 $D=1
M2 Y A0 GND GND N L=1.8e-07 W=5.4e-07 AD=2.5515e-13 AS=3.564e-13 $X=27500 $Y=25000 $D=1
M3 7 A2 Y VDD P L=1.8e-07 W=2.16e-06 AD=7.776e-13 AS=1.05705e-12 $X=15500 $Y=73000 $D=0
M4 8 A1 7 VDD P L=1.8e-07 W=2.16e-06 AD=7.776e-13 AS=7.776e-13 $X=21500 $Y=73000 $D=0
M5 VDD A0 8 VDD P L=1.8e-07 W=2.16e-06 AD=1.12995e-12 AS=7.776e-13 $X=27500 $Y=73000 $D=0
.ENDS
***************************************
.SUBCKT aoi21 A1 A0 B0 Y VDD GND
** N=8 EP=6 IP=0 FDC=6
* PORT A1 A1 8000 57500 METAL2
* PORT A0 A0 17000 57500 METAL2
* PORT B0 B0 26500 57500 METAL2
* PORT Y Y 35500 57500 METAL2
* PORT VDD VDD 20500 115000 METAL1
* PORT GND GND 20500 5000 METAL1
M0 8 A1 GND GND N L=1.8e-07 W=9.9e-07 AD=3.564e-13 AS=5.6295e-13 $X=11500 $Y=26000 $D=1
M1 Y A0 8 GND N L=1.8e-07 W=9.9e-07 AD=5.3055e-13 AS=3.564e-13 $X=17500 $Y=26000 $D=1
M2 GND B0 Y GND N L=1.8e-07 W=4.5e-07 AD=2.9565e-13 AS=5.3055e-13 $X=26000 $Y=32000 $D=1
M3 VDD A1 7 VDD P L=1.8e-07 W=1.53e-06 AD=8.91e-13 AS=7.5735e-13 $X=11500 $Y=76000 $D=0
M4 7 A0 VDD VDD P L=1.8e-07 W=1.53e-06 AD=8.262e-13 AS=8.91e-13 $X=19500 $Y=76000 $D=0
M5 Y B0 7 VDD P L=1.8e-07 W=1.53e-06 AD=7.5735e-13 AS=8.262e-13 $X=27500 $Y=76000 $D=0
.ENDS
***************************************
.SUBCKT ICV_1 1 2 3 4 5 6 7 8
** N=8 EP=8 IP=10 FDC=20
X0 1 2 3 7 8 xnor2 $T=0 0 0 0 $X=0 $Y=0
X1 4 5 6 7 8 xnor2 $T=64000 0 0 0 $X=64000 $Y=0
.ENDS
***************************************
.SUBCKT xor2 A0 A1 Y VDD GND
** N=10 EP=5 IP=0 FDC=12
* PORT A0 A0 12000 45000 METAL2
* PORT A1 A1 36500 45000 METAL2
* PORT Y Y 63500 45000 METAL2
* PORT VDD VDD 35500 115000 METAL1
* PORT VDD VDD 35750 115000 METAL1
* PORT GND GND 35500 5000 METAL1
* PORT GND GND 35750 5000 METAL1
M0 9 A0 6 GND N L=1.8e-07 W=9.9e-07 AD=3.564e-13 AS=4.9005e-13 $X=11500 $Y=19000 $D=1
M1 GND A1 9 GND N L=1.8e-07 W=9.9e-07 AD=5.994e-13 AS=3.564e-13 $X=17500 $Y=19000 $D=1
M2 7 6 GND GND N L=1.8e-07 W=9.9e-07 AD=5.346e-13 AS=5.994e-13 $X=25500 $Y=19000 $D=1
M3 8 A1 7 GND N L=1.8e-07 W=9.9e-07 AD=5.346e-13 AS=5.346e-13 $X=33500 $Y=19000 $D=1
M4 7 A0 8 GND N L=1.8e-07 W=9.9e-07 AD=4.9005e-13 AS=5.346e-13 $X=41500 $Y=19000 $D=1
M5 Y 8 GND GND N L=1.8e-07 W=4.5e-07 AD=2.2275e-13 AS=2.9565e-13 $X=57500 $Y=19000 $D=1
M6 6 A0 VDD VDD P L=1.8e-07 W=1.53e-06 AD=8.262e-13 AS=8.3025e-13 $X=12500 $Y=84000 $D=0
M7 VDD A1 6 VDD P L=1.8e-07 W=1.53e-06 AD=8.91e-13 AS=8.262e-13 $X=20500 $Y=84000 $D=0
M8 8 6 VDD VDD P L=1.8e-07 W=1.53e-06 AD=1.5633e-12 AS=8.91e-13 $X=28500 $Y=84000 $D=0
M9 10 A1 8 VDD P L=1.8e-07 W=2.88e-06 AD=1.0368e-12 AS=1.5633e-12 $X=37000 $Y=69000 $D=0
M10 VDD A0 10 VDD P L=1.8e-07 W=2.88e-06 AD=1.5876e-12 AS=1.0368e-12 $X=43000 $Y=69000 $D=0
M11 Y 8 VDD VDD P L=1.8e-07 W=9.9e-07 AD=4.9005e-13 AS=1.5876e-12 $X=51500 $Y=69000 $D=0
.ENDS
***************************************
.SUBCKT ICV_2 1 2 3 4 5 6 7 8 9
** N=9 EP=9 IP=11 FDC=20
X0 1 2 3 4 8 9 mux21 $T=-1000 0 1 180 $X=-54500 $Y=0
X1 5 6 7 8 9 xnor2 $T=0 0 0 0 $X=0 $Y=0
.ENDS
***************************************
.SUBCKT ICV_3 1 2 3 4 5 6 7
** N=7 EP=7 IP=9 FDC=12
X0 1 2 6 7 inv01 $T=64000 0 0 0 $X=64000 $Y=0
X1 3 4 5 6 7 xnor2 $T=0 0 0 0 $X=0 $Y=0
.ENDS
***************************************
.SUBCKT dffr D R CLK QB Q GND VDD
** N=23 EP=7 IP=0 FDC=34
* PORT D D 17000 52500 METAL2
* PORT R R 53000 52500 METAL2
* PORT CLK CLK 81500 52500 METAL2
* PORT QB QB 160000 52500 METAL2
* PORT Q Q 177500 52500 METAL2
* PORT GND GND 92500 5000 METAL1
* PORT GND GND 93750 5000 METAL1
* PORT VDD VDD 92500 115000 METAL1
* PORT VDD VDD 93750 115000 METAL1
M0 16 12 GND GND N L=1.8e-07 W=1.53e-06 AD=5.508e-13 AS=8.3025e-13 $X=11500 $Y=21000 $D=1
M1 9 D 16 GND N L=1.8e-07 W=1.53e-06 AD=7.9785e-13 AS=5.508e-13 $X=17500 $Y=21000 $D=1
M2 17 10 9 GND N L=1.8e-07 W=4.5e-07 AD=1.62e-13 AS=7.9785e-13 $X=26000 $Y=33000 $D=1
M3 GND 8 17 GND N L=1.8e-07 W=4.5e-07 AD=5.3055e-13 AS=1.62e-13 $X=32000 $Y=33000 $D=1
M4 10 9 GND GND N L=1.8e-07 W=9.9e-07 AD=5.346e-13 AS=5.3055e-13 $X=40500 $Y=27000 $D=1
M5 GND R 10 GND N L=1.8e-07 W=9.9e-07 AD=5.3055e-13 AS=5.346e-13 $X=48500 $Y=27000 $D=1
M6 11 10 GND GND N L=1.8e-07 W=4.5e-07 AD=2.2275e-13 AS=5.3055e-13 $X=57000 $Y=33000 $D=1
M7 GND CLK 12 GND N L=1.8e-07 W=9.9e-07 AD=5.346e-13 AS=4.9005e-13 $X=78500 $Y=33000 $D=1
M8 8 12 GND GND N L=1.8e-07 W=9.9e-07 AD=4.9005e-13 AS=5.346e-13 $X=86500 $Y=33000 $D=1
M9 13 12 14 GND N L=1.8e-07 W=4.5e-07 AD=7.9785e-13 AS=2.2275e-13 $X=108000 $Y=37500 $D=1
M10 18 11 13 GND N L=1.8e-07 W=1.53e-06 AD=5.508e-13 AS=7.9785e-13 $X=116500 $Y=25500 $D=1
M11 GND 8 18 GND N L=1.8e-07 W=1.53e-06 AD=8.7075e-13 AS=5.508e-13 $X=122500 $Y=25500 $D=1
M12 14 15 GND GND N L=1.8e-07 W=4.5e-07 AD=2.43e-13 AS=8.7075e-13 $X=131000 $Y=25500 $D=1
M13 GND R 14 GND N L=1.8e-07 W=4.5e-07 AD=3.078e-13 AS=2.43e-13 $X=139000 $Y=25500 $D=1
M14 15 13 GND GND N L=1.8e-07 W=4.5e-07 AD=2.2275e-13 AS=3.078e-13 $X=147000 $Y=25500 $D=1
M15 GND 13 QB GND N L=1.8e-07 W=9.9e-07 AD=5.994e-13 AS=4.9005e-13 $X=163500 $Y=19000 $D=1
M16 Q QB GND GND N L=1.8e-07 W=9.9e-07 AD=4.9005e-13 AS=5.994e-13 $X=171500 $Y=19000 $D=1
M17 19 8 VDD VDD P L=1.8e-07 W=2.88e-06 AD=1.0368e-12 AS=1.46205e-12 $X=11500 $Y=69000 $D=0
M18 9 D 19 VDD P L=1.8e-07 W=2.88e-06 AD=1.42965e-12 AS=1.0368e-12 $X=17500 $Y=69000 $D=0
M19 20 10 9 VDD P L=1.8e-07 W=4.5e-07 AD=1.62e-13 AS=1.42965e-12 $X=26000 $Y=90500 $D=0
M20 VDD 12 20 VDD P L=1.8e-07 W=4.5e-07 AD=6.6015e-13 AS=1.62e-13 $X=32000 $Y=90500 $D=0
M21 21 9 VDD VDD P L=1.8e-07 W=1.35e-06 AD=4.86e-13 AS=6.6015e-13 $X=40500 $Y=80500 $D=0
M22 10 R 21 VDD P L=1.8e-07 W=1.35e-06 AD=6.1965e-13 AS=4.86e-13 $X=46500 $Y=80500 $D=0
M23 11 10 VDD VDD P L=1.8e-07 W=9.9e-07 AD=4.9005e-13 AS=4.9005e-13 $X=62500 $Y=84500 $D=0
M24 VDD CLK 12 VDD P L=1.8e-07 W=1.98e-06 AD=1.134e-12 AS=9.1935e-13 $X=78500 $Y=74000 $D=0
M25 8 12 VDD VDD P L=1.8e-07 W=1.98e-06 AD=9.1935e-13 AS=1.134e-12 $X=86500 $Y=74000 $D=0
M26 13 8 14 VDD P L=1.8e-07 W=4.5e-07 AD=1.4661e-12 AS=2.2275e-13 $X=108000 $Y=69000 $D=0
M27 22 11 13 VDD P L=1.8e-07 W=2.88e-06 AD=1.0368e-12 AS=1.4661e-12 $X=116500 $Y=69000 $D=0
M28 VDD 12 22 VDD P L=1.8e-07 W=2.88e-06 AD=1.6443e-12 AS=1.0368e-12 $X=122500 $Y=69000 $D=0
M29 23 15 VDD VDD P L=1.8e-07 W=4.5e-07 AD=1.62e-13 AS=1.6443e-12 $X=131000 $Y=69000 $D=0
M30 14 R 23 VDD P L=1.8e-07 W=4.5e-07 AD=2.2275e-13 AS=1.62e-13 $X=137000 $Y=69000 $D=0
M31 15 13 VDD VDD P L=1.8e-07 W=9.9e-07 AD=4.9005e-13 AS=5.6295e-13 $X=147000 $Y=90000 $D=0
M32 VDD 13 QB VDD P L=1.8e-07 W=1.98e-06 AD=1.134e-12 AS=9.1935e-13 $X=163500 $Y=79000 $D=0
M33 Q QB VDD VDD P L=1.8e-07 W=1.98e-06 AD=9.1935e-13 AS=1.134e-12 $X=171500 $Y=79000 $D=0
.ENDS
***************************************
.SUBCKT and02 A0 A1 Y GND VDD
** N=7 EP=5 IP=0 FDC=6
* PORT A0 A0 9000 52500 METAL2
* PORT A1 A1 23000 52500 METAL2
* PORT Y Y 35000 52500 METAL2
* PORT GND GND 20750 5000 METAL1
* PORT VDD VDD 20750 115000 METAL1
M0 7 A0 6 GND N L=1.8e-07 W=9.9e-07 AD=3.564e-13 AS=4.9005e-13 $X=13500 $Y=28000 $D=1
M1 GND A1 7 GND N L=1.8e-07 W=9.9e-07 AD=6.0345e-13 AS=3.564e-13 $X=19500 $Y=28000 $D=1
M2 Y 6 GND GND N L=1.8e-07 W=4.5e-07 AD=2.2275e-13 AS=6.0345e-13 $X=28000 $Y=34000 $D=1
M3 6 A0 VDD VDD P L=1.8e-07 W=1.35e-06 AD=7.29e-13 AS=6.9255e-13 $X=11500 $Y=66000 $D=0
M4 VDD A1 6 VDD P L=1.8e-07 W=1.35e-06 AD=8.3025e-13 AS=7.29e-13 $X=19500 $Y=66000 $D=0
M5 Y 6 VDD VDD P L=1.8e-07 W=9.9e-07 AD=4.9005e-13 AS=8.3025e-13 $X=28000 $Y=66000 $D=0
.ENDS
***************************************
.SUBCKT ICV_4 1 2 3 4 5 6 7 8 9
** N=9 EP=9 IP=11 FDC=20
X0 1 2 3 4 8 9 mux21 $T=117500 0 1 180 $X=64000 $Y=0
X1 5 6 7 8 9 xnor2 $T=0 0 0 0 $X=0 $Y=0
.ENDS
***************************************
.SUBCKT ICV_5 1 2 3 4 5 6 7
** N=7 EP=7 IP=9 FDC=12
X0 1 2 6 7 inv01 $T=-1000 0 1 180 $X=-26000 $Y=0
X1 3 4 5 6 7 xnor2 $T=0 0 0 0 $X=0 $Y=0
.ENDS
***************************************
.SUBCKT dffs_ni D S CLK Q GND VDD
** N=24 EP=6 IP=0 FDC=36
* PORT D D 17000 52500 METAL2
* PORT S S 68500 52500 METAL2
* PORT CLK CLK 93500 52500 METAL2
* PORT QB QB 172500 52500 METAL2<TRIVIAL>
* PORT Q Q 190500 52500 METAL2
* PORT GND GND 99000 5000 METAL1
* PORT VDD VDD 99000 115000 METAL1
M0 17 13 GND GND N L=1.8e-07 W=1.53e-06 AD=5.508e-13 AS=8.3025e-13 $X=11500 $Y=21000 $D=1
M1 9 D 17 GND N L=1.8e-07 W=1.53e-06 AD=7.9785e-13 AS=5.508e-13 $X=17500 $Y=21000 $D=1
M2 18 10 9 GND N L=1.8e-07 W=4.5e-07 AD=1.62e-13 AS=7.9785e-13 $X=26000 $Y=33000 $D=1
M3 GND 8 18 GND N L=1.8e-07 W=4.5e-07 AD=6.0345e-13 AS=1.62e-13 $X=32000 $Y=33000 $D=1
M4 19 9 GND GND N L=1.8e-07 W=9.9e-07 AD=3.564e-13 AS=6.0345e-13 $X=40500 $Y=27000 $D=1
M5 10 11 19 GND N L=1.8e-07 W=9.9e-07 AD=4.9005e-13 AS=3.564e-13 $X=46500 $Y=27000 $D=1
M6 GND S 11 GND N L=1.8e-07 W=9.9e-07 AD=5.346e-13 AS=4.9005e-13 $X=65500 $Y=33000 $D=1
M7 12 10 GND GND N L=1.8e-07 W=9.9e-07 AD=4.9005e-13 AS=5.346e-13 $X=73500 $Y=33000 $D=1
M8 GND CLK 13 GND N L=1.8e-07 W=9.9e-07 AD=5.346e-13 AS=4.9005e-13 $X=90500 $Y=33000 $D=1
M9 8 13 GND GND N L=1.8e-07 W=9.9e-07 AD=4.9005e-13 AS=5.346e-13 $X=98500 $Y=33000 $D=1
M10 14 13 15 GND N L=1.8e-07 W=4.5e-07 AD=7.9785e-13 AS=2.2275e-13 $X=120000 $Y=36000 $D=1
M11 20 12 14 GND N L=1.8e-07 W=1.53e-06 AD=5.508e-13 AS=7.9785e-13 $X=128500 $Y=24000 $D=1
M12 GND 8 20 GND N L=1.8e-07 W=1.53e-06 AD=8.7075e-13 AS=5.508e-13 $X=134500 $Y=24000 $D=1
M13 21 16 GND GND N L=1.8e-07 W=4.5e-07 AD=1.62e-13 AS=8.7075e-13 $X=143000 $Y=36000 $D=1
M14 15 11 21 GND N L=1.8e-07 W=4.5e-07 AD=2.2275e-13 AS=1.62e-13 $X=149000 $Y=36000 $D=1
M15 16 14 GND GND N L=1.8e-07 W=4.5e-07 AD=2.2275e-13 AS=2.9565e-13 $X=159500 $Y=19000 $D=1
M16 GND 14 QB GND N L=1.8e-07 W=9.9e-07 AD=5.994e-13 AS=4.9005e-13 $X=176500 $Y=19000 $D=1
M17 Q QB GND GND N L=1.8e-07 W=9.9e-07 AD=4.9005e-13 AS=5.994e-13 $X=184500 $Y=19000 $D=1
M18 22 8 VDD VDD P L=1.8e-07 W=2.88e-06 AD=1.0368e-12 AS=1.46205e-12 $X=11500 $Y=69000 $D=0
M19 9 D 22 VDD P L=1.8e-07 W=2.88e-06 AD=1.42965e-12 AS=1.0368e-12 $X=17500 $Y=69000 $D=0
M20 23 10 9 VDD P L=1.8e-07 W=4.5e-07 AD=1.62e-13 AS=1.42965e-12 $X=26000 $Y=90500 $D=0
M21 VDD 13 23 VDD P L=1.8e-07 W=4.5e-07 AD=6.6015e-13 AS=1.62e-13 $X=32000 $Y=90500 $D=0
M22 10 9 VDD VDD P L=1.8e-07 W=1.35e-06 AD=7.29e-13 AS=6.6015e-13 $X=40500 $Y=80500 $D=0
M23 VDD 11 10 VDD P L=1.8e-07 W=1.35e-06 AD=6.1965e-13 AS=7.29e-13 $X=48500 $Y=80500 $D=0
M24 VDD S 11 VDD P L=1.8e-07 W=1.98e-06 AD=1.0692e-12 AS=9.1935e-13 $X=65500 $Y=74000 $D=0
M25 12 10 VDD VDD P L=1.8e-07 W=1.98e-06 AD=9.1935e-13 AS=1.0692e-12 $X=73500 $Y=74000 $D=0
M26 VDD CLK 13 VDD P L=1.8e-07 W=1.98e-06 AD=1.134e-12 AS=9.1935e-13 $X=90500 $Y=74000 $D=0
M27 8 13 VDD VDD P L=1.8e-07 W=1.98e-06 AD=9.1935e-13 AS=1.134e-12 $X=98500 $Y=74000 $D=0
M28 14 8 15 VDD P L=1.8e-07 W=4.5e-07 AD=1.4661e-12 AS=2.2275e-13 $X=120000 $Y=69000 $D=0
M29 24 12 14 VDD P L=1.8e-07 W=2.88e-06 AD=1.0368e-12 AS=1.4661e-12 $X=128500 $Y=69000 $D=0
M30 VDD 13 24 VDD P L=1.8e-07 W=2.88e-06 AD=1.60785e-12 AS=1.0368e-12 $X=134500 $Y=69000 $D=0
M31 15 16 VDD VDD P L=1.8e-07 W=4.5e-07 AD=2.43e-13 AS=1.60785e-12 $X=143000 $Y=79000 $D=0
M32 VDD 11 15 VDD P L=1.8e-07 W=4.5e-07 AD=6.0345e-13 AS=2.43e-13 $X=151000 $Y=79000 $D=0
M33 16 14 VDD VDD P L=1.8e-07 W=9.9e-07 AD=4.9005e-13 AS=6.0345e-13 $X=159500 $Y=73000 $D=0
M34 VDD 14 QB VDD P L=1.8e-07 W=1.98e-06 AD=1.134e-12 AS=9.1935e-13 $X=176500 $Y=79000 $D=0
M35 Q QB VDD VDD P L=1.8e-07 W=1.98e-06 AD=9.1935e-13 AS=1.134e-12 $X=184500 $Y=79000 $D=0
.ENDS
***************************************
.SUBCKT ICV_6 1 2 3 4 5 6 7 8 9
** N=9 EP=9 IP=11 FDC=20
X0 1 2 3 4 8 9 mux21 $T=64000 0 0 0 $X=64000 $Y=0
X1 5 6 7 8 9 xnor2 $T=0 0 0 0 $X=0 $Y=0
.ENDS
***************************************
.SUBCKT and03 A0 A1 A2 Y GND VDD
** N=9 EP=6 IP=0 FDC=8
* PORT A0 A0 11500 52500 METAL2
* PORT A1 A1 20500 52500 METAL2
* PORT A2 A2 29500 52500 METAL2
* PORT Y Y 42500 52500 METAL2
* PORT GND GND 24750 5000 METAL1
* PORT VDD VDD 24750 115000 METAL1
M0 8 A0 7 GND N L=1.8e-07 W=1.53e-06 AD=5.508e-13 AS=7.5735e-13 $X=13500 $Y=26000 $D=1
M1 9 A1 8 GND N L=1.8e-07 W=1.53e-06 AD=5.508e-13 AS=5.508e-13 $X=19500 $Y=26000 $D=1
M2 GND A2 9 GND N L=1.8e-07 W=1.53e-06 AD=8.7075e-13 AS=5.508e-13 $X=25500 $Y=26000 $D=1
M3 Y 7 GND GND N L=1.8e-07 W=4.5e-07 AD=2.2275e-13 AS=8.7075e-13 $X=34000 $Y=38000 $D=1
M4 VDD A0 7 VDD P L=1.8e-07 W=1.8e-06 AD=1.0368e-12 AS=8.5455e-13 $X=11500 $Y=72000 $D=0
M5 7 A1 VDD VDD P L=1.8e-07 W=1.8e-06 AD=9.72e-13 AS=1.0368e-12 $X=19500 $Y=72000 $D=0
M6 VDD A2 7 VDD P L=1.8e-07 W=1.8e-06 AD=1.053e-12 AS=9.72e-13 $X=27500 $Y=72000 $D=0
M7 Y 7 VDD VDD P L=1.8e-07 W=9.9e-07 AD=4.9005e-13 AS=1.053e-12 $X=36000 $Y=72000 $D=0
.ENDS
***************************************
.SUBCKT ICV_7 1 2 3 4 5 6 7 8
** N=8 EP=8 IP=10 FDC=20
X0 1 2 3 7 8 xnor2 $T=0 0 0 0 $X=0 $Y=0
X1 4 5 6 7 8 xnor2 $T=127000 0 1 180 $X=64000 $Y=0
.ENDS
***************************************
.SUBCKT ICV_8 1 2 3 4 5 6 7 8 9 10 11 12
** N=12 EP=12 IP=14 FDC=30
X0 1 2 3 4 11 12 mux21 $T=128000 0 0 0 $X=128000 $Y=0
X1 5 6 7 10 9 8 11 12 ICV_7 $T=0 0 0 0 $X=0 $Y=0
.ENDS
***************************************
.SUBCKT ICV_9 1 2 3 4 5 6 7 8
** N=8 EP=8 IP=10 FDC=20
X0 1 2 3 7 8 xnor2 $T=-64000 0 0 0 $X=-64000 $Y=0
X1 4 5 6 7 8 xnor2 $T=0 0 0 0 $X=0 $Y=0
.ENDS
***************************************
.SUBCKT ICV_10 1 2 3 4 5 6 7 8
** N=8 EP=8 IP=10 FDC=16
X0 1 2 3 8 7 nor02ii $T=-1000 0 1 180 $X=-42000 $Y=0
X1 4 5 6 7 8 xnor2 $T=0 0 0 0 $X=0 $Y=0
.ENDS
***************************************
.SUBCKT and04 A0 A1 A2 A3 Y GND VDD
** N=11 EP=7 IP=0 FDC=10
* PORT A0 A0 12000 52500 METAL2
* PORT A1 A1 21000 52500 METAL2
* PORT A2 A2 30000 52500 METAL2
* PORT A3 A3 39000 52500 METAL2
* PORT Y Y 51000 52500 METAL2
* PORT GND GND 28750 5000 METAL1
* PORT VDD VDD 28750 115000 METAL1
M0 9 A0 8 GND N L=1.8e-07 W=2.07e-06 AD=7.452e-13 AS=1.02465e-12 $X=15500 $Y=20000 $D=1
M1 10 A1 9 GND N L=1.8e-07 W=2.07e-06 AD=7.452e-13 AS=7.452e-13 $X=21500 $Y=20000 $D=1
M2 11 A2 10 GND N L=1.8e-07 W=2.07e-06 AD=7.452e-13 AS=7.452e-13 $X=27500 $Y=20000 $D=1
M3 GND A3 11 GND N L=1.8e-07 W=2.07e-06 AD=1.13805e-12 AS=7.452e-13 $X=33500 $Y=20000 $D=1
M4 Y 8 GND GND N L=1.8e-07 W=4.5e-07 AD=2.2275e-13 AS=1.13805e-12 $X=42000 $Y=38000 $D=1
M5 8 A0 VDD VDD P L=1.8e-07 W=2.25e-06 AD=1.215e-12 AS=1.16235e-12 $X=11500 $Y=69500 $D=0
M6 VDD A1 8 VDD P L=1.8e-07 W=2.25e-06 AD=1.2798e-12 AS=1.215e-12 $X=19500 $Y=69500 $D=0
M7 8 A2 VDD VDD P L=1.8e-07 W=2.25e-06 AD=1.215e-12 AS=1.2798e-12 $X=27500 $Y=69500 $D=0
M8 VDD A3 8 VDD P L=1.8e-07 W=2.25e-06 AD=1.27575e-12 AS=1.215e-12 $X=35500 $Y=69500 $D=0
M9 Y 8 VDD VDD P L=1.8e-07 W=9.9e-07 AD=4.9005e-13 AS=1.27575e-12 $X=44000 $Y=69500 $D=0
.ENDS
***************************************
.SUBCKT aoi22 Y B1 B0 A0 A1 VDD GND
** N=10 EP=7 IP=0 FDC=8
* PORT Y Y 6500 52500 METAL2
* PORT B1 B1 15500 52500 METAL2
* PORT B0 B0 24500 52500 METAL2
* PORT A0 A0 33500 52500 METAL2
* PORT A1 A1 42500 52500 METAL2
* PORT VDD VDD 24500 115000 METAL1
* PORT GND GND 24500 5000 METAL1
M0 9 B1 GND GND N L=1.8e-07 W=9.9e-07 AD=3.564e-13 AS=5.6295e-13 $X=13500 $Y=26000 $D=1
M1 Y B0 9 GND N L=1.8e-07 W=9.9e-07 AD=5.346e-13 AS=3.564e-13 $X=19500 $Y=26000 $D=1
M2 10 A0 Y GND N L=1.8e-07 W=9.9e-07 AD=3.564e-13 AS=5.346e-13 $X=27500 $Y=26000 $D=1
M3 GND A1 10 GND N L=1.8e-07 W=9.9e-07 AD=5.6295e-13 AS=3.564e-13 $X=33500 $Y=26000 $D=1
M4 Y B1 8 VDD P L=1.8e-07 W=1.53e-06 AD=8.262e-13 AS=7.5735e-13 $X=11500 $Y=72000 $D=0
M5 8 B0 Y VDD P L=1.8e-07 W=1.53e-06 AD=8.262e-13 AS=8.262e-13 $X=19500 $Y=72000 $D=0
M6 VDD A0 8 VDD P L=1.8e-07 W=1.53e-06 AD=8.91e-13 AS=8.262e-13 $X=27500 $Y=72000 $D=0
M7 8 A1 VDD VDD P L=1.8e-07 W=1.53e-06 AD=7.5735e-13 AS=8.91e-13 $X=35500 $Y=72000 $D=0
.ENDS
***************************************
.SUBCKT ICV_11 1 2 3 4 5 6 7 8 9 10 11 12
** N=12 EP=12 IP=14 FDC=30
X0 1 2 3 4 11 12 mux21 $T=-65000 0 1 180 $X=-118500 $Y=0
X1 5 6 7 8 9 10 11 12 ICV_9 $T=0 0 0 0 $X=-64000 $Y=0
.ENDS
***************************************
.SUBCKT ICV_12 1 2 3 4 5 6 7 8 9
** N=9 EP=9 IP=11 FDC=20
X0 1 2 3 4 8 9 mux21 $T=-54500 0 0 0 $X=-54500 $Y=0
X1 5 6 7 8 9 xnor2 $T=0 0 0 0 $X=0 $Y=0
.ENDS
***************************************
.SUBCKT nand04 A0 Y A1 A2 A3 GND VDD
** N=10 EP=7 IP=0 FDC=8
* PORT A0 A0 6500 60000 METAL2
* PORT Y Y 15500 60000 METAL2
* PORT A1 A1 24500 60000 METAL2
* PORT A2 A2 33500 60000 METAL2
* PORT A3 A3 42500 60000 METAL2
* PORT GND GND 24500 5000 METAL1
* PORT VDD VDD 24500 115000 METAL1
M0 8 A0 Y GND N L=1.8e-07 W=2.07e-06 AD=7.452e-13 AS=1.02465e-12 $X=14500 $Y=21000 $D=1
M1 9 A1 8 GND N L=1.8e-07 W=2.07e-06 AD=7.452e-13 AS=7.452e-13 $X=20500 $Y=21000 $D=1
M2 10 A2 9 GND N L=1.8e-07 W=2.07e-06 AD=7.452e-13 AS=7.452e-13 $X=26500 $Y=21000 $D=1
M3 GND A3 10 GND N L=1.8e-07 W=2.07e-06 AD=1.09755e-12 AS=7.452e-13 $X=32500 $Y=21000 $D=1
M4 Y A0 VDD VDD P L=1.8e-07 W=2.16e-06 AD=1.1664e-12 AS=1.12995e-12 $X=11500 $Y=75000 $D=0
M5 VDD A1 Y VDD P L=1.8e-07 W=2.16e-06 AD=1.2312e-12 AS=1.1664e-12 $X=19500 $Y=75000 $D=0
M6 Y A2 VDD VDD P L=1.8e-07 W=2.16e-06 AD=1.1664e-12 AS=1.2312e-12 $X=27500 $Y=75000 $D=0
M7 VDD A3 Y VDD P L=1.8e-07 W=2.16e-06 AD=1.12995e-12 AS=1.1664e-12 $X=35500 $Y=75000 $D=0
.ENDS
***************************************
.SUBCKT ICV_13 1 2 3 4 5 6 7 8 9 10 11 12
** N=12 EP=12 IP=14 FDC=30
X0 1 2 3 4 11 12 mux21 $T=181500 0 1 180 $X=128000 $Y=0
X1 5 6 7 10 9 8 11 12 ICV_7 $T=0 0 0 0 $X=0 $Y=0
.ENDS
***************************************
.SUBCKT mux21_ni S0 A1 A0 Y GND VDD
** N=12 EP=6 IP=0 FDC=12
* PORT S0 S0 14500 52500 METAL2
* PORT A1 A1 24500 52500 METAL2
* PORT A0 A0 33500 52500 METAL2
* PORT Y Y 55500 52500 METAL2
* PORT GND GND 31000 5000 METAL1
* PORT VDD VDD 31000 115000 METAL1
M0 GND S0 7 GND N L=1.8e-07 W=4.5e-07 AD=6.0345e-13 AS=2.2275e-13 $X=11500 $Y=27500 $D=1
M1 9 S0 GND GND N L=1.8e-07 W=9.9e-07 AD=3.564e-13 AS=6.0345e-13 $X=20000 $Y=21500 $D=1
M2 8 A1 9 GND N L=1.8e-07 W=9.9e-07 AD=5.346e-13 AS=3.564e-13 $X=26000 $Y=21500 $D=1
M3 10 A0 8 GND N L=1.8e-07 W=9.9e-07 AD=3.564e-13 AS=5.346e-13 $X=34000 $Y=21500 $D=1
M4 GND 7 10 GND N L=1.8e-07 W=9.9e-07 AD=6.0345e-13 AS=3.564e-13 $X=40000 $Y=21500 $D=1
M5 Y 8 GND GND N L=1.8e-07 W=4.5e-07 AD=2.2275e-13 AS=6.0345e-13 $X=48500 $Y=27500 $D=1
M6 VDD S0 7 VDD P L=1.8e-07 W=9.9e-07 AD=1.1421e-12 AS=4.9005e-13 $X=11500 $Y=78000 $D=0
M7 11 S0 VDD VDD P L=1.8e-07 W=1.98e-06 AD=7.128e-13 AS=1.1421e-12 $X=20000 $Y=78000 $D=0
M8 8 A0 11 VDD P L=1.8e-07 W=1.98e-06 AD=1.0692e-12 AS=7.128e-13 $X=26000 $Y=78000 $D=0
M9 12 A1 8 VDD P L=1.8e-07 W=1.98e-06 AD=7.128e-13 AS=1.0692e-12 $X=34000 $Y=78000 $D=0
M10 VDD 7 12 VDD P L=1.8e-07 W=1.98e-06 AD=1.1421e-12 AS=7.128e-13 $X=40000 $Y=78000 $D=0
M11 Y 8 VDD VDD P L=1.8e-07 W=9.9e-07 AD=4.9005e-13 AS=1.1421e-12 $X=48500 $Y=78000 $D=0
.ENDS
***************************************
.SUBCKT latchr CLK D R QB GND VDD
** N=14 EP=6 IP=0 FDC=16
* PORT CLK CLK 14500 52500 METAL2
* PORT D D 27500 52500 METAL2
* PORT R R 57500 52500 METAL2
* PORT QB QB 76500 52500 METAL2
* PORT GND GND 42500 5000 METAL1
* PORT VDD VDD 42500 115000 METAL1
M0 GND CLK 7 GND N L=1.8e-07 W=4.5e-07 AD=8.7075e-13 AS=2.2275e-13 $X=11500 $Y=33000 $D=1
M1 10 CLK GND GND N L=1.8e-07 W=1.53e-06 AD=5.508e-13 AS=8.7075e-13 $X=20000 $Y=21000 $D=1
M2 8 D 10 GND N L=1.8e-07 W=1.53e-06 AD=7.9785e-13 AS=5.508e-13 $X=26000 $Y=21000 $D=1
M3 11 7 8 GND N L=1.8e-07 W=4.5e-07 AD=1.62e-13 AS=7.9785e-13 $X=34500 $Y=25000 $D=1
M4 GND 9 11 GND N L=1.8e-07 W=4.5e-07 AD=6.0345e-13 AS=1.62e-13 $X=40500 $Y=25000 $D=1
M5 9 8 GND GND N L=1.8e-07 W=9.9e-07 AD=5.346e-13 AS=6.0345e-13 $X=49000 $Y=19000 $D=1
M6 GND R 9 GND N L=1.8e-07 W=9.9e-07 AD=6.0345e-13 AS=5.346e-13 $X=57000 $Y=19000 $D=1
M7 QB 9 GND GND N L=1.8e-07 W=4.5e-07 AD=2.2275e-13 AS=6.0345e-13 $X=65500 $Y=25000 $D=1
M8 VDD CLK 7 VDD P L=1.8e-07 W=9.9e-07 AD=1.5876e-12 AS=4.9005e-13 $X=11500 $Y=69000 $D=0
M9 12 7 VDD VDD P L=1.8e-07 W=2.88e-06 AD=1.0368e-12 AS=1.5876e-12 $X=20000 $Y=69000 $D=0
M10 8 D 12 VDD P L=1.8e-07 W=2.88e-06 AD=1.42965e-12 AS=1.0368e-12 $X=26000 $Y=69000 $D=0
M11 13 CLK 8 VDD P L=1.8e-07 W=4.5e-07 AD=1.62e-13 AS=1.42965e-12 $X=34500 $Y=83000 $D=0
M12 VDD 9 13 VDD P L=1.8e-07 W=4.5e-07 AD=9.153e-13 AS=1.62e-13 $X=40500 $Y=83000 $D=0
M13 14 8 VDD VDD P L=1.8e-07 W=1.62e-06 AD=5.832e-13 AS=9.153e-13 $X=49000 $Y=83000 $D=0
M14 9 R 14 VDD P L=1.8e-07 W=1.62e-06 AD=7.8975e-13 AS=5.832e-13 $X=55000 $Y=83000 $D=0
M15 QB 9 VDD VDD P L=1.8e-07 W=9.9e-07 AD=4.9005e-13 AS=5.6295e-13 $X=71500 $Y=90000 $D=0
.ENDS
***************************************
.SUBCKT oai22 A0 A1 Y B1 B0 GND VDD
** N=10 EP=7 IP=0 FDC=8
* PORT A0 A0 6500 52500 METAL2
* PORT A1 A1 15500 52500 METAL2
* PORT Y Y 24500 52500 METAL2
* PORT B1 B1 33500 52500 METAL2
* PORT B0 B0 42500 52500 METAL2
* PORT GND GND 24500 5000 METAL1
* PORT VDD VDD 24500 115000 METAL1
M0 Y A0 8 GND N L=1.8e-07 W=9.9e-07 AD=5.346e-13 AS=4.9005e-13 $X=11500 $Y=22500 $D=1
M1 8 A1 Y GND N L=1.8e-07 W=9.9e-07 AD=5.346e-13 AS=5.346e-13 $X=19500 $Y=22500 $D=1
M2 GND B1 8 GND N L=1.8e-07 W=9.9e-07 AD=5.994e-13 AS=5.346e-13 $X=27500 $Y=22500 $D=1
M3 8 B0 GND GND N L=1.8e-07 W=9.9e-07 AD=4.9005e-13 AS=5.994e-13 $X=35500 $Y=22500 $D=1
M4 9 A0 VDD VDD P L=1.8e-07 W=2.61e-06 AD=9.396e-13 AS=1.36485e-12 $X=13500 $Y=66000 $D=0
M5 Y A1 9 VDD P L=1.8e-07 W=2.61e-06 AD=1.4094e-12 AS=9.396e-13 $X=19500 $Y=66000 $D=0
M6 10 B1 Y VDD P L=1.8e-07 W=2.61e-06 AD=9.396e-13 AS=1.4094e-12 $X=27500 $Y=66000 $D=0
M7 VDD B0 10 VDD P L=1.8e-07 W=2.61e-06 AD=1.36485e-12 AS=9.396e-13 $X=33500 $Y=66000 $D=0
.ENDS
***************************************
.SUBCKT oai21 B0 A1 Y A0 GND VDD
** N=8 EP=6 IP=0 FDC=6
* PORT B0 B0 6500 52500 METAL2
* PORT A1 A1 15500 52500 METAL2
* PORT Y Y 24500 52500 METAL2
* PORT A0 A0 33500 52500 METAL2
* PORT GND GND 20500 5000 METAL1
* PORT VDD VDD 20500 115000 METAL1
M0 7 B0 GND GND N L=1.8e-07 W=9.9e-07 AD=5.346e-13 AS=5.6295e-13 $X=11500 $Y=25000 $D=1
M1 Y A1 7 GND N L=1.8e-07 W=9.9e-07 AD=5.346e-13 AS=5.346e-13 $X=19500 $Y=25000 $D=1
M2 7 A0 Y GND N L=1.8e-07 W=9.9e-07 AD=4.9005e-13 AS=5.346e-13 $X=27500 $Y=25000 $D=1
M3 Y B0 VDD VDD P L=1.8e-07 W=1.35e-06 AD=1.41345e-12 AS=6.9255e-13 $X=13000 $Y=68000 $D=0
M4 8 A1 Y VDD P L=1.8e-07 W=2.61e-06 AD=9.396e-13 AS=1.41345e-12 $X=21500 $Y=68000 $D=0
M5 VDD A0 8 VDD P L=1.8e-07 W=2.61e-06 AD=1.36485e-12 AS=9.396e-13 $X=27500 $Y=68000 $D=0
.ENDS
***************************************
.SUBCKT nor02 A1 Y A0 VDD GND
** N=6 EP=5 IP=0 FDC=4
* PORT A1 A1 7500 57500 METAL2
* PORT Y Y 16500 57500 METAL2
* PORT A0 A0 25500 57500 METAL2
* PORT VDD VDD 16500 115000 METAL1
* PORT GND GND 16500 5000 METAL1
M0 Y A1 GND GND N L=1.8e-07 W=4.5e-07 AD=2.43e-13 AS=2.9565e-13 $X=11500 $Y=26000 $D=1
M1 GND A0 Y GND N L=1.8e-07 W=4.5e-07 AD=2.9565e-13 AS=2.43e-13 $X=19500 $Y=26000 $D=1
M2 6 A1 Y VDD P L=1.8e-07 W=1.53e-06 AD=5.508e-13 AS=7.5735e-13 $X=11500 $Y=76000 $D=0
M3 VDD A0 6 VDD P L=1.8e-07 W=1.53e-06 AD=8.3025e-13 AS=5.508e-13 $X=17500 $Y=76000 $D=0
.ENDS
***************************************
.SUBCKT or02 A1 A0 Y VDD GND
** N=7 EP=5 IP=0 FDC=6
* PORT A1 A1 12500 52500 METAL2
* PORT A0 A0 21500 52500 METAL2
* PORT Y Y 33500 52500 METAL2
* PORT VDD VDD 20500 115000 METAL1
* PORT GND GND 20500 5000 METAL1
M0 6 A1 GND GND N L=1.8e-07 W=4.5e-07 AD=2.43e-13 AS=2.9565e-13 $X=11500 $Y=19000 $D=1
M1 GND A0 6 GND N L=1.8e-07 W=4.5e-07 AD=3.078e-13 AS=2.43e-13 $X=19500 $Y=19000 $D=1
M2 Y 6 GND GND N L=1.8e-07 W=4.5e-07 AD=2.2275e-13 AS=3.078e-13 $X=27500 $Y=19000 $D=1
M3 7 A1 6 VDD P L=1.8e-07 W=1.53e-06 AD=5.508e-13 AS=7.5735e-13 $X=13000 $Y=84000 $D=0
M4 VDD A0 7 VDD P L=1.8e-07 W=1.53e-06 AD=9.1935e-13 AS=5.508e-13 $X=19000 $Y=84000 $D=0
M5 Y 6 VDD VDD P L=1.8e-07 W=9.9e-07 AD=4.9005e-13 AS=9.1935e-13 $X=27500 $Y=84000 $D=0
.ENDS
***************************************
.SUBCKT aoi32 A2 A1 A0 Y B0 B1 VDD GND
** N=12 EP=8 IP=0 FDC=10
* PORT A2 A2 5500 52500 METAL2
* PORT A1 A1 14500 52500 METAL2
* PORT A0 A0 23500 52500 METAL2
* PORT Y Y 32500 52500 METAL2
* PORT B0 B0 41500 52500 METAL2
* PORT B1 B1 50500 52500 METAL2
* PORT VDD VDD 28500 115000 METAL1
* PORT GND GND 28500 5000 METAL1
M0 10 A2 GND GND N L=1.8e-07 W=1.53e-06 AD=5.508e-13 AS=8.3025e-13 $X=11500 $Y=19500 $D=1
M1 11 A1 10 GND N L=1.8e-07 W=1.53e-06 AD=5.508e-13 AS=5.508e-13 $X=17500 $Y=19500 $D=1
M2 Y A0 11 GND N L=1.8e-07 W=1.53e-06 AD=8.4645e-13 AS=5.508e-13 $X=23500 $Y=19500 $D=1
M3 12 B0 Y GND N L=1.8e-07 W=9.9e-07 AD=3.564e-13 AS=8.4645e-13 $X=32000 $Y=25500 $D=1
M4 GND B1 12 GND N L=1.8e-07 W=9.9e-07 AD=5.6295e-13 AS=3.564e-13 $X=38000 $Y=25500 $D=1
M5 9 A2 VDD VDD P L=1.8e-07 W=1.53e-06 AD=8.262e-13 AS=8.3025e-13 $X=11500 $Y=81000 $D=0
M6 VDD A1 9 VDD P L=1.8e-07 W=1.53e-06 AD=8.91e-13 AS=8.262e-13 $X=19500 $Y=81000 $D=0
M7 9 A0 VDD VDD P L=1.8e-07 W=1.53e-06 AD=8.262e-13 AS=8.91e-13 $X=27500 $Y=81000 $D=0
M8 Y B0 9 VDD P L=1.8e-07 W=1.53e-06 AD=8.262e-13 AS=8.262e-13 $X=35500 $Y=81000 $D=0
M9 9 B1 Y VDD P L=1.8e-07 W=1.53e-06 AD=7.5735e-13 AS=8.262e-13 $X=43500 $Y=81000 $D=0
.ENDS
***************************************
.SUBCKT nand03 A0 Y A1 A2 VDD GND
** N=8 EP=6 IP=0 FDC=6
* PORT A0 A0 7500 55000 METAL2
* PORT Y Y 16500 55000 METAL2
* PORT A1 A1 25500 55000 METAL2
* PORT A2 A2 34500 55000 METAL2
* PORT VDD VDD 20500 115000 METAL1
* PORT GND GND 20500 5000 METAL1
M0 7 A0 Y GND N L=1.8e-07 W=1.53e-06 AD=5.508e-13 AS=7.5735e-13 $X=13500 $Y=24500 $D=1
M1 8 A1 7 GND N L=1.8e-07 W=1.53e-06 AD=5.508e-13 AS=5.508e-13 $X=19500 $Y=24500 $D=1
M2 GND A2 8 GND N L=1.8e-07 W=1.53e-06 AD=8.3025e-13 AS=5.508e-13 $X=25500 $Y=24500 $D=1