* File: /home/cxr3473/digicdesign/project/digic_project/demo/sobel_demo/pex/sobel_layout.pex.netlist
* Created: Fri Apr 21 10:27:42 2017
* Program "Calibre xRC"
* Version "v2013.4_26.18"
* 
.include "/home/cxr3473/digicdesign/project/digic_project/demo/sobel_demo/pex/sobel_layout.pex.netlist.pex"
.subckt SOBEL_LAYOUT  O_MODE[1] I_RESET I_PIXEL_BOT[16] I_PIXEL_BOT[0]
+ I_PIXEL_TOP[15] I_PIXEL_MID[17] I_PIXEL_BOT[7] I_PIXEL_MID[7] I_PIXEL_BOT[2]
+ I_PIXEL_TOP[1] I_CLOCK I_PIXEL_MID[16] I_PIXEL_TOP[17] I_PIXEL_BOT[9] I_VALID
+ I_PIXEL_TOP[16] I_PIXEL_BOT[18] I_PIXEL_TOP[19] I_PIXEL_TOP[0] I_PIXEL_TOP[11]
+ I_PIXEL_MID[22] I_PIXEL_TOP[9] I_PIXEL_MID[0] I_PIXEL_BOT[3] I_PIXEL_MID[3]
+ I_PIXEL_MID[2] I_PIXEL_MID[18] I_PIXEL_TOP[3] I_PIXEL_BOT[14] I_PIXEL_BOT[11]
+ I_PIXEL_BOT[6] O_MODE[0] I_PIXEL_BOT[4] I_PIXEL_TOP[21] I_PIXEL_BOT[19]
+ I_PIXEL_MID[4] I_PIXEL_BOT[13] I_PIXEL_BOT[12] I_PIXEL_TOP[4] I_PIXEL_TOP[5]
+ I_PIXEL_MID[20] I_PIXEL_BOT[20] I_PIXEL_BOT[21] I_PIXEL_MID[5] I_PIXEL_BOT[15]
+ I_PIXEL_TOP[7] I_PIXEL_TOP[20] I_PIXEL_MID[23] I_PIXEL_TOP[12] I_PIXEL_TOP[13]
+ O_DIR[0] I_PIXEL_BOT[1] I_PIXEL_BOT[8] I_PIXEL_TOP[8] I_PIXEL_TOP[18]
+ I_PIXEL_MID[1] I_PIXEL_BOT[17] I_PIXEL_TOP[2] O_DIR[2] O_VALID O_DIR[1] O_EDGE
+ I_PIXEL_MID[21] I_PIXEL_MID[19] I_PIXEL_TOP[22] I_PIXEL_BOT[5] I_PIXEL_MID[6]
+ I_PIXEL_BOT[22] I_PIXEL_BOT[10] I_PIXEL_TOP[6] I_PIXEL_TOP[23] I_PIXEL_TOP[14]
+ I_PIXEL_BOT[23] I_PIXEL_TOP[10] VDD GND
* 
* GND	GND
* VDD	VDD
* I_PIXEL_TOP[10]	I_PIXEL_TOP[10]
* I_PIXEL_BOT[23]	I_PIXEL_BOT[23]
* I_PIXEL_TOP[14]	I_PIXEL_TOP[14]
* I_PIXEL_TOP[23]	I_PIXEL_TOP[23]
* I_PIXEL_TOP[6]	I_PIXEL_TOP[6]
* I_PIXEL_BOT[10]	I_PIXEL_BOT[10]
* I_PIXEL_BOT[22]	I_PIXEL_BOT[22]
* I_PIXEL_MID[6]	I_PIXEL_MID[6]
* I_PIXEL_BOT[5]	I_PIXEL_BOT[5]
* I_PIXEL_TOP[22]	I_PIXEL_TOP[22]
* I_PIXEL_MID[19]	I_PIXEL_MID[19]
* I_PIXEL_MID[21]	I_PIXEL_MID[21]
* O_EDGE	O_EDGE
* O_DIR[1]	O_DIR[1]
* O_VALID	O_VALID
* O_DIR[2]	O_DIR[2]
* I_PIXEL_TOP[2]	I_PIXEL_TOP[2]
* I_PIXEL_BOT[17]	I_PIXEL_BOT[17]
* I_PIXEL_MID[1]	I_PIXEL_MID[1]
* I_PIXEL_TOP[18]	I_PIXEL_TOP[18]
* I_PIXEL_TOP[8]	I_PIXEL_TOP[8]
* I_PIXEL_BOT[8]	I_PIXEL_BOT[8]
* I_PIXEL_BOT[1]	I_PIXEL_BOT[1]
* O_DIR[0]	O_DIR[0]
* I_PIXEL_TOP[13]	I_PIXEL_TOP[13]
* I_PIXEL_TOP[12]	I_PIXEL_TOP[12]
* I_PIXEL_MID[23]	I_PIXEL_MID[23]
* I_PIXEL_TOP[20]	I_PIXEL_TOP[20]
* I_PIXEL_TOP[7]	I_PIXEL_TOP[7]
* I_PIXEL_BOT[15]	I_PIXEL_BOT[15]
* I_PIXEL_MID[5]	I_PIXEL_MID[5]
* I_PIXEL_BOT[21]	I_PIXEL_BOT[21]
* I_PIXEL_BOT[20]	I_PIXEL_BOT[20]
* I_PIXEL_MID[20]	I_PIXEL_MID[20]
* I_PIXEL_TOP[5]	I_PIXEL_TOP[5]
* I_PIXEL_TOP[4]	I_PIXEL_TOP[4]
* I_PIXEL_BOT[12]	I_PIXEL_BOT[12]
* I_PIXEL_BOT[13]	I_PIXEL_BOT[13]
* I_PIXEL_MID[4]	I_PIXEL_MID[4]
* I_PIXEL_BOT[19]	I_PIXEL_BOT[19]
* I_PIXEL_TOP[21]	I_PIXEL_TOP[21]
* I_PIXEL_BOT[4]	I_PIXEL_BOT[4]
* O_MODE[0]	O_MODE[0]
* I_PIXEL_BOT[6]	I_PIXEL_BOT[6]
* I_PIXEL_BOT[11]	I_PIXEL_BOT[11]
* I_PIXEL_BOT[14]	I_PIXEL_BOT[14]
* I_PIXEL_TOP[3]	I_PIXEL_TOP[3]
* I_PIXEL_MID[18]	I_PIXEL_MID[18]
* I_PIXEL_MID[2]	I_PIXEL_MID[2]
* I_PIXEL_MID[3]	I_PIXEL_MID[3]
* I_PIXEL_BOT[3]	I_PIXEL_BOT[3]
* I_PIXEL_MID[0]	I_PIXEL_MID[0]
* I_PIXEL_TOP[9]	I_PIXEL_TOP[9]
* I_PIXEL_MID[22]	I_PIXEL_MID[22]
* I_PIXEL_TOP[11]	I_PIXEL_TOP[11]
* I_PIXEL_TOP[0]	I_PIXEL_TOP[0]
* I_PIXEL_TOP[19]	I_PIXEL_TOP[19]
* I_PIXEL_BOT[18]	I_PIXEL_BOT[18]
* I_PIXEL_TOP[16]	I_PIXEL_TOP[16]
* I_VALID	I_VALID
* I_PIXEL_BOT[9]	I_PIXEL_BOT[9]
* I_PIXEL_TOP[17]	I_PIXEL_TOP[17]
* I_PIXEL_MID[16]	I_PIXEL_MID[16]
* I_CLOCK	I_CLOCK
* I_PIXEL_TOP[1]	I_PIXEL_TOP[1]
* I_PIXEL_BOT[2]	I_PIXEL_BOT[2]
* I_PIXEL_MID[7]	I_PIXEL_MID[7]
* I_PIXEL_BOT[7]	I_PIXEL_BOT[7]
* I_PIXEL_MID[17]	I_PIXEL_MID[17]
* I_PIXEL_TOP[15]	I_PIXEL_TOP[15]
* I_PIXEL_BOT[0]	I_PIXEL_BOT[0]
* I_PIXEL_BOT[16]	I_PIXEL_BOT[16]
* I_RESET	I_RESET
* O_MODE[1]	O_MODE[1]
M0 N_404_M0_d N_1299_M0_g N_GND_M0_s N_GND_X80.M0_b n L=1.8e-07 W=9.9e-07
+ AD=5.346e-13 AS=5.6295e-13
M1 N_GND_M1_d N_406_M1_g N_404_M1_s N_GND_X80.M0_b n L=1.8e-07 W=9.9e-07
+ AD=5.994e-13 AS=5.346e-13
M2 N_404_M2_d N_417_M2_g N_GND_M2_s N_GND_X80.M0_b n L=1.8e-07 W=9.9e-07
+ AD=5.346e-13 AS=5.994e-13
M3 N_GND_M3_d N_422_M3_g N_404_M3_s N_GND_X80.M0_b n L=1.8e-07 W=9.9e-07
+ AD=5.6295e-13 AS=5.346e-13
M4 N_1329_M4_d N_535_M4_g N_539_M4_s N_GND_X80.M0_b n L=1.8e-07 W=1.53e-06
+ AD=8.262e-13 AS=7.5735e-13
M5 N_539_M5_d N_575_M5_g N_1329_M5_s N_GND_X80.M0_b n L=1.8e-07 W=1.53e-06
+ AD=8.262e-13 AS=8.262e-13
M6 N_1329_M6_d N_31_M6_g N_539_M6_s N_GND_X80.M0_b n L=1.8e-07 W=1.53e-06
+ AD=7.5735e-13 AS=8.262e-13
M7 N_1329_M7_d N_199_M7_g N_1330_M7_s N_GND_X80.M0_b n L=1.8e-07 W=1.53e-06
+ AD=8.262e-13 AS=7.5735e-13
M8 N_1330_M8_d N_194_M8_g N_1329_M8_s N_GND_X80.M0_b n L=1.8e-07 W=1.53e-06
+ AD=8.262e-13 AS=8.262e-13
M9 N_GND_M9_d N_584_M9_g N_1330_M9_s N_GND_X80.M0_b n L=1.8e-07 W=1.53e-06
+ AD=8.3025e-13 AS=8.262e-13
M10 N_GND_M10_d N_1331_M10_g N_659_M10_s N_GND_X80.M0_b n L=1.8e-07 W=4.5e-07
+ AD=3.078e-13 AS=2.2275e-13
M11 N_1331_M11_d N_224_M11_g N_GND_M11_s N_GND_X80.M0_b n L=1.8e-07 W=4.5e-07
+ AD=5.3055e-13 AS=3.078e-13
M12 N_1342_M12_d N_649_M12_g N_1331_M12_s N_GND_X80.M0_b n L=1.8e-07 W=9.9e-07
+ AD=3.564e-13 AS=5.3055e-13
M13 N_GND_M13_d N_205_M13_g N_1342_M13_s N_GND_X80.M0_b n L=1.8e-07 W=9.9e-07
+ AD=5.6295e-13 AS=3.564e-13
M14 N_1343_M14_d N_265_M14_g N_741_M14_s N_GND_X80.M0_b n L=1.8e-07 W=1.17e-06
+ AD=4.212e-13 AS=5.5485e-13
M15 N_GND_M15_d N_612_M15_g N_1343_M15_s N_GND_X80.M0_b n L=1.8e-07 W=1.17e-06
+ AD=6.804e-13 AS=4.212e-13
M16 N_1344_M16_d N_234_M16_g N_GND_M16_s N_GND_X80.M0_b n L=1.8e-07 W=9.9e-07
+ AD=3.564e-13 AS=6.804e-13
M17 N_741_M17_d N_226_M17_g N_1344_M17_s N_GND_X80.M0_b n L=1.8e-07 W=9.9e-07
+ AD=5.346e-13 AS=3.564e-13
M18 N_1345_M18_d N_818_M18_g N_741_M18_s N_GND_X80.M0_b n L=1.8e-07 W=9.9e-07
+ AD=3.564e-13 AS=5.346e-13
M19 N_GND_M19_d N_220_M19_g N_1345_M19_s N_GND_X80.M0_b n L=1.8e-07 W=9.9e-07
+ AD=5.6295e-13 AS=3.564e-13
M20 N_1346_M20_d N_495_M20_g N_GND_M20_s N_GND_X80.M0_b n L=1.8e-07 W=1.53e-06
+ AD=5.508e-13 AS=8.3025e-13
M21 N_1347_M21_d N_111_M21_g N_1346_M21_s N_GND_X80.M0_b n L=1.8e-07 W=1.53e-06
+ AD=5.508e-13 AS=5.508e-13
M22 N_713_M22_d N_20_M22_g N_1347_M22_s N_GND_X80.M0_b n L=1.8e-07 W=1.53e-06
+ AD=8.262e-13 AS=5.508e-13
M23 N_1348_M23_d N_220_M23_g N_713_M23_s N_GND_X80.M0_b n L=1.8e-07 W=1.53e-06
+ AD=5.508e-13 AS=8.262e-13
M24 N_1349_M24_d N_62_M24_g N_1348_M24_s N_GND_X80.M0_b n L=1.8e-07 W=1.53e-06
+ AD=5.508e-13 AS=5.508e-13
M25 N_GND_M25_d N_34_M25_g N_1349_M25_s N_GND_X80.M0_b n L=1.8e-07 W=1.53e-06
+ AD=8.3025e-13 AS=5.508e-13
M26 N_GND_M26_d N_1337_M26_g N_1336_M26_s N_GND_X80.M0_b n L=1.8e-07 W=4.5e-07
+ AD=3.078e-13 AS=2.2275e-13
M27 N_1350_M27_d N_1339_M27_g N_GND_M27_s N_GND_X80.M0_b n L=1.8e-07 W=4.5e-07
+ AD=1.62e-13 AS=3.078e-13
M28 N_1337_M28_d N_1336_M28_g N_1350_M28_s N_GND_X80.M0_b n L=1.8e-07 W=4.5e-07
+ AD=7.9785e-13 AS=1.62e-13
M29 N_1351_M29_d N_1089_M29_g N_1337_M29_s N_GND_X80.M0_b n L=1.8e-07 W=1.53e-06
+ AD=5.508e-13 AS=7.9785e-13
M30 N_GND_M30_d N_1338_M30_g N_1351_M30_s N_GND_X80.M0_b n L=1.8e-07 W=1.53e-06
+ AD=8.3025e-13 AS=5.508e-13
M31 N_GND_M31_d N_I_CLOCK_M31_g N_1338_M31_s N_GND_X80.M0_b n L=1.8e-07
+ W=9.9e-07 AD=5.994e-13 AS=4.9005e-13
M32 N_1339_M32_d N_1338_M32_g N_GND_M32_s N_GND_X80.M0_b n L=1.8e-07 W=9.9e-07
+ AD=4.9005e-13 AS=5.994e-13
M33 N_1352_M33_d N_1339_M33_g N_GND_M33_s N_GND_X80.M0_b n L=1.8e-07 W=1.53e-06
+ AD=5.508e-13 AS=7.5735e-13
M34 N_1340_M34_d N_1337_M34_g N_1352_M34_s N_GND_X80.M0_b n L=1.8e-07 W=1.53e-06
+ AD=7.9785e-13 AS=5.508e-13
M35 N_1353_M35_d N_1338_M35_g N_1340_M35_s N_GND_X80.M0_b n L=1.8e-07 W=4.5e-07
+ AD=1.62e-13 AS=7.9785e-13
M36 N_GND_M36_d N_1341_M36_g N_1353_M36_s N_GND_X80.M0_b n L=1.8e-07 W=4.5e-07
+ AD=3.078e-13 AS=1.62e-13
M37 N_1341_M37_d N_1340_M37_g N_GND_M37_s N_GND_X80.M0_b n L=1.8e-07 W=4.5e-07
+ AD=2.2275e-13 AS=3.078e-13
M38 N_GND_M38_d N_1340_M38_g N_1133_M38_s N_GND_X80.M0_b n L=1.8e-07 W=9.9e-07
+ AD=5.994e-13 AS=4.9005e-13
M39 N_1114_M39_d N_1133_M39_g N_GND_M39_s N_GND_X80.M0_b n L=1.8e-07 W=9.9e-07
+ AD=4.9005e-13 AS=5.994e-13
M40 N_1354_M40_d N_1299_M40_g N_VDD_M40_s N_VDD_M40_b p L=1.8e-07 W=2.88e-06
+ AD=1.0368e-12 AS=1.46205e-12
M41 N_1355_M41_d N_406_M41_g N_1354_M41_s N_VDD_M40_b p L=1.8e-07 W=2.88e-06
+ AD=1.0368e-12 AS=1.0368e-12
M42 N_1356_M42_d N_417_M42_g N_1355_M42_s N_VDD_M40_b p L=1.8e-07 W=2.88e-06
+ AD=1.0368e-12 AS=1.0368e-12
M43 N_404_M43_d N_422_M43_g N_1356_M43_s N_VDD_M40_b p L=1.8e-07 W=2.88e-06
+ AD=1.38915e-12 AS=1.0368e-12
M44 N_1357_M44_d N_535_M44_g N_VDD_M44_s N_VDD_M44_b p L=1.8e-07 W=4.41e-06
+ AD=1.5876e-12 AS=2.23155e-12
M45 N_1358_M45_d N_575_M45_g N_1357_M45_s N_VDD_M44_b p L=1.8e-07 W=4.41e-06
+ AD=1.5876e-12 AS=1.5876e-12
M46 N_539_M46_d N_31_M46_g N_1358_M46_s N_VDD_M44_b p L=1.8e-07 W=4.41e-06
+ AD=2.47455e-12 AS=1.5876e-12
M47 N_1359_M47_d N_199_M47_g N_539_M47_s N_VDD_M44_b p L=1.8e-07 W=3.24e-06
+ AD=1.1664e-12 AS=2.47455e-12
M48 N_VDD_M48_d N_194_M48_g N_1359_M48_s N_VDD_M44_b p L=1.8e-07 W=3.24e-06
+ AD=1.8225e-12 AS=1.1664e-12
M49 N_539_M49_d N_584_M49_g N_VDD_M49_s N_VDD_M44_b p L=1.8e-07 W=1.62e-06
+ AD=7.8975e-13 AS=1.8225e-12
M50 N_VDD_M50_d N_1331_M50_g N_659_M50_s N_VDD_M50_b p L=1.8e-07 W=9.9e-07
+ AD=5.6295e-13 AS=4.9005e-13
M51 N_1332_M51_d N_224_M51_g N_1331_M51_s N_VDD_M50_b p L=1.8e-07 W=1.53e-06
+ AD=8.262e-13 AS=7.5735e-13
M52 N_VDD_M52_d N_649_M52_g N_1332_M52_s N_VDD_M50_b p L=1.8e-07 W=1.53e-06
+ AD=8.91e-13 AS=8.262e-13
M53 N_1332_M53_d N_205_M53_g N_VDD_M53_s N_VDD_M50_b p L=1.8e-07 W=1.53e-06
+ AD=7.5735e-13 AS=8.91e-13
M54 N_VDD_M54_d N_265_M54_g N_1333_M54_s N_VDD_M54_b p L=1.8e-07 W=2.34e-06
+ AD=1.3284e-12 AS=1.12185e-12
M55 N_1333_M55_d N_612_M55_g N_VDD_M55_s N_VDD_M54_b p L=1.8e-07 W=2.34e-06
+ AD=1.215e-12 AS=1.3284e-12
M56 N_1334_M56_d N_234_M56_g N_1333_M56_s N_VDD_M54_b p L=1.8e-07 W=2.07e-06
+ AD=1.1178e-12 AS=1.215e-12
M57 N_1333_M57_d N_226_M57_g N_1334_M57_s N_VDD_M54_b p L=1.8e-07 W=2.07e-06
+ AD=1.02465e-12 AS=1.1178e-12
M58 N_741_M58_d N_818_M58_g N_1334_M58_s N_VDD_M54_b p L=1.8e-07 W=2.07e-06
+ AD=1.1178e-12 AS=1.02465e-12
M59 N_1334_M59_d N_220_M59_g N_741_M59_s N_VDD_M54_b p L=1.8e-07 W=2.07e-06
+ AD=1.02465e-12 AS=1.1178e-12
M60 N_1335_M60_d N_495_M60_g N_VDD_M60_s N_VDD_M60_b p L=1.8e-07 W=1.8e-06
+ AD=9.72e-13 AS=9.2745e-13
M61 N_VDD_M61_d N_111_M61_g N_1335_M61_s N_VDD_M60_b p L=1.8e-07 W=1.8e-06
+ AD=1.0368e-12 AS=9.72e-13
M62 N_1335_M62_d N_20_M62_g N_VDD_M62_s N_VDD_M60_b p L=1.8e-07 W=1.8e-06
+ AD=9.234e-13 AS=1.0368e-12
M63 N_713_M63_d N_220_M63_g N_1335_M63_s N_VDD_M60_b p L=1.8e-07 W=1.53e-06
+ AD=8.262e-13 AS=9.234e-13
M64 N_1335_M64_d N_62_M64_g N_713_M64_s N_VDD_M60_b p L=1.8e-07 W=1.53e-06
+ AD=8.262e-13 AS=8.262e-13
M65 N_713_M65_d N_34_M65_g N_1335_M65_s N_VDD_M60_b p L=1.8e-07 W=1.53e-06
+ AD=7.5735e-13 AS=8.262e-13
M66 N_VDD_M66_d N_1337_M66_g N_1336_M66_s N_VDD_M66_b p L=1.8e-07 W=4.5e-07
+ AD=3.078e-13 AS=2.2275e-13
M67 N_1360_M67_d N_1338_M67_g N_VDD_M67_s N_VDD_M66_b p L=1.8e-07 W=4.5e-07
+ AD=1.62e-13 AS=3.078e-13
M68 N_1337_M68_d N_1336_M68_g N_1360_M68_s N_VDD_M66_b p L=1.8e-07 W=4.5e-07
+ AD=1.42965e-12 AS=1.62e-13
M69 N_1361_M69_d N_1089_M69_g N_1337_M69_s N_VDD_M66_b p L=1.8e-07 W=2.88e-06
+ AD=1.0368e-12 AS=1.42965e-12
M70 N_VDD_M70_d N_1339_M70_g N_1361_M70_s N_VDD_M66_b p L=1.8e-07 W=2.88e-06
+ AD=1.45395e-12 AS=1.0368e-12
M71 N_VDD_M71_d N_I_CLOCK_M71_g N_1338_M71_s N_VDD_M66_b p L=1.8e-07 W=1.98e-06
+ AD=1.134e-12 AS=9.1935e-13
M72 N_1339_M72_d N_1338_M72_g N_VDD_M72_s N_VDD_M66_b p L=1.8e-07 W=1.98e-06
+ AD=9.1935e-13 AS=1.134e-12
M73 N_1362_M73_d N_1338_M73_g N_VDD_M73_s N_VDD_M66_b p L=1.8e-07 W=2.88e-06
+ AD=1.0368e-12 AS=1.46205e-12
M74 N_1340_M74_d N_1337_M74_g N_1362_M74_s N_VDD_M66_b p L=1.8e-07 W=2.88e-06
+ AD=1.42965e-12 AS=1.0368e-12
M75 N_1363_M75_d N_1339_M75_g N_1340_M75_s N_VDD_M66_b p L=1.8e-07 W=4.5e-07
+ AD=1.62e-13 AS=1.42965e-12
M76 N_VDD_M76_d N_1341_M76_g N_1363_M76_s N_VDD_M66_b p L=1.8e-07 W=4.5e-07
+ AD=3.078e-13 AS=1.62e-13
M77 N_1341_M77_d N_1340_M77_g N_VDD_M77_s N_VDD_M66_b p L=1.8e-07 W=4.5e-07
+ AD=2.2275e-13 AS=3.078e-13
M78 N_VDD_M78_d N_1340_M78_g N_1133_M78_s N_VDD_M66_b p L=1.8e-07 W=1.98e-06
+ AD=1.134e-12 AS=9.1935e-13
M79 N_1114_M79_d N_1133_M79_g N_VDD_M79_s N_VDD_M66_b p L=1.8e-07 W=1.98e-06
+ AD=9.1935e-13 AS=1.134e-12
mX80.M0 N_X80.8_X80.M0_d N_X80.7_X80.M0_g N_GND_X80.M0_s N_GND_X80.M0_b n
+ L=1.8e-07 W=9.9e-07 AD=3.564e-13 AS=5.6295e-13
mX80.M1 N_417_X80.M1_d N_414_X80.M1_g N_X80.8_X80.M1_s N_GND_X80.M0_b n
+ L=1.8e-07 W=9.9e-07 AD=5.346e-13 AS=3.564e-13
mX80.M2 N_X80.9_X80.M2_d N_437_X80.M2_g N_417_X80.M2_s N_GND_X80.M0_b n
+ L=1.8e-07 W=9.9e-07 AD=3.564e-13 AS=5.346e-13
mX80.M3 N_GND_X80.M3_d N_444_X80.M3_g N_X80.9_X80.M3_s N_GND_X80.M0_b n
+ L=1.8e-07 W=9.9e-07 AD=6.0345e-13 AS=3.564e-13
mX80.M4 N_X80.7_X80.M4_d N_444_X80.M4_g N_GND_X80.M4_s N_GND_X80.M0_b n
+ L=1.8e-07 W=4.5e-07 AD=2.2275e-13 AS=6.0345e-13
mX80.M5 N_X80.10_X80.M5_d N_X80.7_X80.M5_g N_VDD_X80.M5_s N_VDD_X80.M5_b p
+ L=1.8e-07 W=1.98e-06 AD=7.128e-13 AS=9.9225e-13
mX80.M6 N_417_X80.M6_d N_437_X80.M6_g N_X80.10_X80.M6_s N_VDD_X80.M5_b p
+ L=1.8e-07 W=1.98e-06 AD=1.0692e-12 AS=7.128e-13
mX80.M7 N_X80.11_X80.M7_d N_414_X80.M7_g N_417_X80.M7_s N_VDD_X80.M5_b p
+ L=1.8e-07 W=1.98e-06 AD=7.128e-13 AS=1.0692e-12
mX80.M8 N_VDD_X80.M8_d N_444_X80.M8_g N_X80.11_X80.M8_s N_VDD_X80.M5_b p
+ L=1.8e-07 W=1.98e-06 AD=1.1421e-12 AS=7.128e-13
mX80.M9 N_X80.7_X80.M9_d N_444_X80.M9_g N_VDD_X80.M9_s N_VDD_X80.M5_b p
+ L=1.8e-07 W=9.9e-07 AD=4.9005e-13 AS=1.1421e-12
mX81.M0 N_X81.8_X81.M0_d N_X81.7_X81.M0_g N_GND_X81.M0_s N_GND_X80.M0_b n
+ L=1.8e-07 W=9.9e-07 AD=3.564e-13 AS=5.6295e-13
mX81.M1 N_427_X81.M1_d N_452_X81.M1_g N_X81.8_X81.M1_s N_GND_X80.M0_b n
+ L=1.8e-07 W=9.9e-07 AD=5.346e-13 AS=3.564e-13
mX81.M2 N_X81.9_X81.M2_d N_424_X81.M2_g N_427_X81.M2_s N_GND_X80.M0_b n
+ L=1.8e-07 W=9.9e-07 AD=3.564e-13 AS=5.346e-13
mX81.M3 N_GND_X81.M3_d N_423_X81.M3_g N_X81.9_X81.M3_s N_GND_X80.M0_b n
+ L=1.8e-07 W=9.9e-07 AD=6.0345e-13 AS=3.564e-13
mX81.M4 N_X81.7_X81.M4_d N_423_X81.M4_g N_GND_X81.M4_s N_GND_X80.M0_b n
+ L=1.8e-07 W=4.5e-07 AD=2.2275e-13 AS=6.0345e-13
mX81.M5 N_X81.10_X81.M5_d N_X81.7_X81.M5_g N_VDD_X81.M5_s N_VDD_X81.M5_b p
+ L=1.8e-07 W=1.98e-06 AD=7.128e-13 AS=9.9225e-13
mX81.M6 N_427_X81.M6_d N_424_X81.M6_g N_X81.10_X81.M6_s N_VDD_X81.M5_b p
+ L=1.8e-07 W=1.98e-06 AD=1.0692e-12 AS=7.128e-13
mX81.M7 N_X81.11_X81.M7_d N_452_X81.M7_g N_427_X81.M7_s N_VDD_X81.M5_b p
+ L=1.8e-07 W=1.98e-06 AD=7.128e-13 AS=1.0692e-12
mX81.M8 N_VDD_X81.M8_d N_423_X81.M8_g N_X81.11_X81.M8_s N_VDD_X81.M5_b p
+ L=1.8e-07 W=1.98e-06 AD=1.1421e-12 AS=7.128e-13
mX81.M9 N_X81.7_X81.M9_d N_423_X81.M9_g N_VDD_X81.M9_s N_VDD_X81.M5_b p
+ L=1.8e-07 W=9.9e-07 AD=4.9005e-13 AS=1.1421e-12
mX82.M0 N_X82.8_X82.M0_d N_X82.7_X82.M0_g N_GND_X82.M0_s N_GND_X80.M0_b n
+ L=1.8e-07 W=9.9e-07 AD=3.564e-13 AS=5.6295e-13
mX82.M1 N_429_X82.M1_d N_427_X82.M1_g N_X82.8_X82.M1_s N_GND_X80.M0_b n
+ L=1.8e-07 W=9.9e-07 AD=5.346e-13 AS=3.564e-13
mX82.M2 N_X82.9_X82.M2_d N_146_X82.M2_g N_429_X82.M2_s N_GND_X80.M0_b n
+ L=1.8e-07 W=9.9e-07 AD=3.564e-13 AS=5.346e-13
mX82.M3 N_GND_X82.M3_d N_435_X82.M3_g N_X82.9_X82.M3_s N_GND_X80.M0_b n
+ L=1.8e-07 W=9.9e-07 AD=6.0345e-13 AS=3.564e-13
mX82.M4 N_X82.7_X82.M4_d N_435_X82.M4_g N_GND_X82.M4_s N_GND_X80.M0_b n
+ L=1.8e-07 W=4.5e-07 AD=2.2275e-13 AS=6.0345e-13
mX82.M5 N_X82.10_X82.M5_d N_X82.7_X82.M5_g N_VDD_X82.M5_s N_VDD_X82.M5_b p
+ L=1.8e-07 W=1.98e-06 AD=7.128e-13 AS=9.9225e-13
mX82.M6 N_429_X82.M6_d N_146_X82.M6_g N_X82.10_X82.M6_s N_VDD_X82.M5_b p
+ L=1.8e-07 W=1.98e-06 AD=1.0692e-12 AS=7.128e-13
mX82.M7 N_X82.11_X82.M7_d N_427_X82.M7_g N_429_X82.M7_s N_VDD_X82.M5_b p
+ L=1.8e-07 W=1.98e-06 AD=7.128e-13 AS=1.0692e-12
mX82.M8 N_VDD_X82.M8_d N_435_X82.M8_g N_X82.11_X82.M8_s N_VDD_X82.M5_b p
+ L=1.8e-07 W=1.98e-06 AD=1.1421e-12 AS=7.128e-13
mX82.M9 N_X82.7_X82.M9_d N_435_X82.M9_g N_VDD_X82.M9_s N_VDD_X82.M5_b p
+ L=1.8e-07 W=9.9e-07 AD=4.9005e-13 AS=1.1421e-12
mX83.M0 N_X83.8_X83.M0_d N_X83.7_X83.M0_g N_GND_X83.M0_s N_GND_X80.M0_b n
+ L=1.8e-07 W=9.9e-07 AD=3.564e-13 AS=5.6295e-13
mX83.M1 N_440_X83.M1_d N_162_X83.M1_g N_X83.8_X83.M1_s N_GND_X80.M0_b n
+ L=1.8e-07 W=9.9e-07 AD=5.346e-13 AS=3.564e-13
mX83.M2 N_X83.9_X83.M2_d N_448_X83.M2_g N_440_X83.M2_s N_GND_X80.M0_b n
+ L=1.8e-07 W=9.9e-07 AD=3.564e-13 AS=5.346e-13
mX83.M3 N_GND_X83.M3_d N_434_X83.M3_g N_X83.9_X83.M3_s N_GND_X80.M0_b n
+ L=1.8e-07 W=9.9e-07 AD=6.0345e-13 AS=3.564e-13
mX83.M4 N_X83.7_X83.M4_d N_434_X83.M4_g N_GND_X83.M4_s N_GND_X80.M0_b n
+ L=1.8e-07 W=4.5e-07 AD=2.2275e-13 AS=6.0345e-13
mX83.M5 N_X83.10_X83.M5_d N_X83.7_X83.M5_g N_VDD_X83.M5_s N_VDD_X83.M5_b p
+ L=1.8e-07 W=1.98e-06 AD=7.128e-13 AS=9.9225e-13
mX83.M6 N_440_X83.M6_d N_448_X83.M6_g N_X83.10_X83.M6_s N_VDD_X83.M5_b p
+ L=1.8e-07 W=1.98e-06 AD=1.0692e-12 AS=7.128e-13
mX83.M7 N_X83.11_X83.M7_d N_162_X83.M7_g N_440_X83.M7_s N_VDD_X83.M5_b p
+ L=1.8e-07 W=1.98e-06 AD=7.128e-13 AS=1.0692e-12
mX83.M8 N_VDD_X83.M8_d N_434_X83.M8_g N_X83.11_X83.M8_s N_VDD_X83.M5_b p
+ L=1.8e-07 W=1.98e-06 AD=1.1421e-12 AS=7.128e-13
mX83.M9 N_X83.7_X83.M9_d N_434_X83.M9_g N_VDD_X83.M9_s N_VDD_X83.M5_b p
+ L=1.8e-07 W=9.9e-07 AD=4.9005e-13 AS=1.1421e-12
mX84.M0 N_X84.8_X84.M0_d N_X84.7_X84.M0_g N_GND_X84.M0_s N_GND_X80.M0_b n
+ L=1.8e-07 W=9.9e-07 AD=3.564e-13 AS=5.6295e-13
mX84.M1 N_441_X84.M1_d N_158_X84.M1_g N_X84.8_X84.M1_s N_GND_X80.M0_b n
+ L=1.8e-07 W=9.9e-07 AD=5.346e-13 AS=3.564e-13
mX84.M2 N_X84.9_X84.M2_d N_449_X84.M2_g N_441_X84.M2_s N_GND_X80.M0_b n
+ L=1.8e-07 W=9.9e-07 AD=3.564e-13 AS=5.346e-13
mX84.M3 N_GND_X84.M3_d N_434_X84.M3_g N_X84.9_X84.M3_s N_GND_X80.M0_b n
+ L=1.8e-07 W=9.9e-07 AD=6.0345e-13 AS=3.564e-13
mX84.M4 N_X84.7_X84.M4_d N_434_X84.M4_g N_GND_X84.M4_s N_GND_X80.M0_b n
+ L=1.8e-07 W=4.5e-07 AD=2.2275e-13 AS=6.0345e-13
mX84.M5 N_X84.10_X84.M5_d N_X84.7_X84.M5_g N_VDD_X84.M5_s N_VDD_X84.M5_b p
+ L=1.8e-07 W=1.98e-06 AD=7.128e-13 AS=9.9225e-13
mX84.M6 N_441_X84.M6_d N_449_X84.M6_g N_X84.10_X84.M6_s N_VDD_X84.M5_b p
+ L=1.8e-07 W=1.98e-06 AD=1.0692e-12 AS=7.128e-13
mX84.M7 N_X84.11_X84.M7_d N_158_X84.M7_g N_441_X84.M7_s N_VDD_X84.M5_b p
+ L=1.8e-07 W=1.98e-06 AD=7.128e-13 AS=1.0692e-12
mX84.M8 N_VDD_X84.M8_d N_434_X84.M8_g N_X84.11_X84.M8_s N_VDD_X84.M5_b p
+ L=1.8e-07 W=1.98e-06 AD=1.1421e-12 AS=7.128e-13
mX84.M9 N_X84.7_X84.M9_d N_434_X84.M9_g N_VDD_X84.M9_s N_VDD_X84.M5_b p
+ L=1.8e-07 W=9.9e-07 AD=4.9005e-13 AS=1.1421e-12
mX85.M0 N_X85.8_X85.M0_d N_X85.7_X85.M0_g N_GND_X85.M0_s N_GND_X80.M0_b n
+ L=1.8e-07 W=9.9e-07 AD=3.564e-13 AS=5.6295e-13
mX85.M1 N_442_X85.M1_d N_159_X85.M1_g N_X85.8_X85.M1_s N_GND_X80.M0_b n
+ L=1.8e-07 W=9.9e-07 AD=5.346e-13 AS=3.564e-13
mX85.M2 N_X85.9_X85.M2_d N_450_X85.M2_g N_442_X85.M2_s N_GND_X80.M0_b n
+ L=1.8e-07 W=9.9e-07 AD=3.564e-13 AS=5.346e-13
mX85.M3 N_GND_X85.M3_d N_434_X85.M3_g N_X85.9_X85.M3_s N_GND_X80.M0_b n
+ L=1.8e-07 W=9.9e-07 AD=6.0345e-13 AS=3.564e-13
mX85.M4 N_X85.7_X85.M4_d N_434_X85.M4_g N_GND_X85.M4_s N_GND_X80.M0_b n
+ L=1.8e-07 W=4.5e-07 AD=2.2275e-13 AS=6.0345e-13
mX85.M5 N_X85.10_X85.M5_d N_X85.7_X85.M5_g N_VDD_X85.M5_s N_VDD_X85.M5_b p
+ L=1.8e-07 W=1.98e-06 AD=7.128e-13 AS=9.9225e-13
mX85.M6 N_442_X85.M6_d N_450_X85.M6_g N_X85.10_X85.M6_s N_VDD_X85.M5_b p
+ L=1.8e-07 W=1.98e-06 AD=1.0692e-12 AS=7.128e-13
mX85.M7 N_X85.11_X85.M7_d N_159_X85.M7_g N_442_X85.M7_s N_VDD_X85.M5_b p
+ L=1.8e-07 W=1.98e-06 AD=7.128e-13 AS=1.0692e-12
mX85.M8 N_VDD_X85.M8_d N_434_X85.M8_g N_X85.11_X85.M8_s N_VDD_X85.M5_b p
+ L=1.8e-07 W=1.98e-06 AD=1.1421e-12 AS=7.128e-13
mX85.M9 N_X85.7_X85.M9_d N_434_X85.M9_g N_VDD_X85.M9_s N_VDD_X85.M5_b p
+ L=1.8e-07 W=9.9e-07 AD=4.9005e-13 AS=1.1421e-12
mX86.M0 N_X86.8_X86.M0_d N_X86.7_X86.M0_g N_GND_X86.M0_s N_GND_X80.M0_b n
+ L=1.8e-07 W=9.9e-07 AD=3.564e-13 AS=5.6295e-13
mX86.M1 N_443_X86.M1_d N_410_X86.M1_g N_X86.8_X86.M1_s N_GND_X80.M0_b n
+ L=1.8e-07 W=9.9e-07 AD=5.346e-13 AS=3.564e-13
mX86.M2 N_X86.9_X86.M2_d N_459_X86.M2_g N_443_X86.M2_s N_GND_X80.M0_b n
+ L=1.8e-07 W=9.9e-07 AD=3.564e-13 AS=5.346e-13
mX86.M3 N_GND_X86.M3_d N_434_X86.M3_g N_X86.9_X86.M3_s N_GND_X80.M0_b n
+ L=1.8e-07 W=9.9e-07 AD=6.0345e-13 AS=3.564e-13
mX86.M4 N_X86.7_X86.M4_d N_434_X86.M4_g N_GND_X86.M4_s N_GND_X80.M0_b n
+ L=1.8e-07 W=4.5e-07 AD=2.2275e-13 AS=6.0345e-13
mX86.M5 N_X86.10_X86.M5_d N_X86.7_X86.M5_g N_VDD_X86.M5_s N_VDD_X86.M5_b p
+ L=1.8e-07 W=1.98e-06 AD=7.128e-13 AS=9.9225e-13
mX86.M6 N_443_X86.M6_d N_459_X86.M6_g N_X86.10_X86.M6_s N_VDD_X86.M5_b p
+ L=1.8e-07 W=1.98e-06 AD=1.0692e-12 AS=7.128e-13
mX86.M7 N_X86.11_X86.M7_d N_410_X86.M7_g N_443_X86.M7_s N_VDD_X86.M5_b p
+ L=1.8e-07 W=1.98e-06 AD=7.128e-13 AS=1.0692e-12
mX86.M8 N_VDD_X86.M8_d N_434_X86.M8_g N_X86.11_X86.M8_s N_VDD_X86.M5_b p
+ L=1.8e-07 W=1.98e-06 AD=1.1421e-12 AS=7.128e-13
mX86.M9 N_X86.7_X86.M9_d N_434_X86.M9_g N_VDD_X86.M9_s N_VDD_X86.M5_b p
+ L=1.8e-07 W=9.9e-07 AD=4.9005e-13 AS=1.1421e-12
mX87.M0 N_X87.8_X87.M0_d N_X87.7_X87.M0_g N_GND_X87.M0_s N_GND_X80.M0_b n
+ L=1.8e-07 W=9.9e-07 AD=3.564e-13 AS=5.6295e-13
mX87.M1 N_445_X87.M1_d N_433_X87.M1_g N_X87.8_X87.M1_s N_GND_X80.M0_b n
+ L=1.8e-07 W=9.9e-07 AD=5.346e-13 AS=3.564e-13
mX87.M2 N_X87.9_X87.M2_d N_453_X87.M2_g N_445_X87.M2_s N_GND_X80.M0_b n
+ L=1.8e-07 W=9.9e-07 AD=3.564e-13 AS=5.346e-13
mX87.M3 N_GND_X87.M3_d N_434_X87.M3_g N_X87.9_X87.M3_s N_GND_X80.M0_b n
+ L=1.8e-07 W=9.9e-07 AD=6.0345e-13 AS=3.564e-13
mX87.M4 N_X87.7_X87.M4_d N_434_X87.M4_g N_GND_X87.M4_s N_GND_X80.M0_b n
+ L=1.8e-07 W=4.5e-07 AD=2.2275e-13 AS=6.0345e-13
mX87.M5 N_X87.10_X87.M5_d N_X87.7_X87.M5_g N_VDD_X87.M5_s N_VDD_X87.M5_b p
+ L=1.8e-07 W=1.98e-06 AD=7.128e-13 AS=9.9225e-13
mX87.M6 N_445_X87.M6_d N_453_X87.M6_g N_X87.10_X87.M6_s N_VDD_X87.M5_b p
+ L=1.8e-07 W=1.98e-06 AD=1.0692e-12 AS=7.128e-13
mX87.M7 N_X87.11_X87.M7_d N_433_X87.M7_g N_445_X87.M7_s N_VDD_X87.M5_b p
+ L=1.8e-07 W=1.98e-06 AD=7.128e-13 AS=1.0692e-12
mX87.M8 N_VDD_X87.M8_d N_434_X87.M8_g N_X87.11_X87.M8_s N_VDD_X87.M5_b p
+ L=1.8e-07 W=1.98e-06 AD=1.1421e-12 AS=7.128e-13
mX87.M9 N_X87.7_X87.M9_d N_434_X87.M9_g N_VDD_X87.M9_s N_VDD_X87.M5_b p
+ L=1.8e-07 W=9.9e-07 AD=4.9005e-13 AS=1.1421e-12
mX88.M0 N_X88.8_X88.M0_d N_X88.7_X88.M0_g N_GND_X88.M0_s N_GND_X80.M0_b n
+ L=1.8e-07 W=9.9e-07 AD=3.564e-13 AS=5.6295e-13
mX88.M1 N_452_X88.M1_d N_468_X88.M1_g N_X88.8_X88.M1_s N_GND_X80.M0_b n
+ L=1.8e-07 W=9.9e-07 AD=5.346e-13 AS=3.564e-13
mX88.M2 N_X88.9_X88.M2_d N_154_X88.M2_g N_452_X88.M2_s N_GND_X80.M0_b n
+ L=1.8e-07 W=9.9e-07 AD=3.564e-13 AS=5.346e-13
mX88.M3 N_GND_X88.M3_d N_439_X88.M3_g N_X88.9_X88.M3_s N_GND_X80.M0_b n
+ L=1.8e-07 W=9.9e-07 AD=6.0345e-13 AS=3.564e-13
mX88.M4 N_X88.7_X88.M4_d N_439_X88.M4_g N_GND_X88.M4_s N_GND_X80.M0_b n
+ L=1.8e-07 W=4.5e-07 AD=2.2275e-13 AS=6.0345e-13
mX88.M5 N_X88.10_X88.M5_d N_X88.7_X88.M5_g N_VDD_X88.M5_s N_VDD_X88.M5_b p
+ L=1.8e-07 W=1.98e-06 AD=7.128e-13 AS=9.9225e-13
mX88.M6 N_452_X88.M6_d N_154_X88.M6_g N_X88.10_X88.M6_s N_VDD_X88.M5_b p
+ L=1.8e-07 W=1.98e-06 AD=1.0692e-12 AS=7.128e-13
mX88.M7 N_X88.11_X88.M7_d N_468_X88.M7_g N_452_X88.M7_s N_VDD_X88.M5_b p
+ L=1.8e-07 W=1.98e-06 AD=7.128e-13 AS=1.0692e-12
mX88.M8 N_VDD_X88.M8_d N_439_X88.M8_g N_X88.11_X88.M8_s N_VDD_X88.M5_b p
+ L=1.8e-07 W=1.98e-06 AD=1.1421e-12 AS=7.128e-13
mX88.M9 N_X88.7_X88.M9_d N_439_X88.M9_g N_VDD_X88.M9_s N_VDD_X88.M5_b p
+ L=1.8e-07 W=9.9e-07 AD=4.9005e-13 AS=1.1421e-12
mX89.M0 N_X89.8_X89.M0_d N_X89.7_X89.M0_g N_GND_X89.M0_s N_GND_X80.M0_b n
+ L=1.8e-07 W=9.9e-07 AD=3.564e-13 AS=5.6295e-13
mX89.M1 N_458_X89.M1_d N_157_X89.M1_g N_X89.8_X89.M1_s N_GND_X80.M0_b n
+ L=1.8e-07 W=9.9e-07 AD=5.346e-13 AS=3.564e-13
mX89.M2 N_X89.9_X89.M2_d N_470_X89.M2_g N_458_X89.M2_s N_GND_X80.M0_b n
+ L=1.8e-07 W=9.9e-07 AD=3.564e-13 AS=5.346e-13
mX89.M3 N_GND_X89.M3_d N_125_X89.M3_g N_X89.9_X89.M3_s N_GND_X80.M0_b n
+ L=1.8e-07 W=9.9e-07 AD=6.0345e-13 AS=3.564e-13
mX89.M4 N_X89.7_X89.M4_d N_125_X89.M4_g N_GND_X89.M4_s N_GND_X80.M0_b n
+ L=1.8e-07 W=4.5e-07 AD=2.2275e-13 AS=6.0345e-13
mX89.M5 N_X89.10_X89.M5_d N_X89.7_X89.M5_g N_VDD_X89.M5_s N_VDD_X89.M5_b p
+ L=1.8e-07 W=1.98e-06 AD=7.128e-13 AS=9.9225e-13
mX89.M6 N_458_X89.M6_d N_470_X89.M6_g N_X89.10_X89.M6_s N_VDD_X89.M5_b p
+ L=1.8e-07 W=1.98e-06 AD=1.0692e-12 AS=7.128e-13
mX89.M7 N_X89.11_X89.M7_d N_157_X89.M7_g N_458_X89.M7_s N_VDD_X89.M5_b p
+ L=1.8e-07 W=1.98e-06 AD=7.128e-13 AS=1.0692e-12
mX89.M8 N_VDD_X89.M8_d N_125_X89.M8_g N_X89.11_X89.M8_s N_VDD_X89.M5_b p
+ L=1.8e-07 W=1.98e-06 AD=1.1421e-12 AS=7.128e-13
mX89.M9 N_X89.7_X89.M9_d N_125_X89.M9_g N_VDD_X89.M9_s N_VDD_X89.M5_b p
+ L=1.8e-07 W=9.9e-07 AD=4.9005e-13 AS=1.1421e-12
mX90.M0 N_X90.8_X90.M0_d N_X90.7_X90.M0_g N_GND_X90.M0_s N_GND_X80.M0_b n
+ L=1.8e-07 W=9.9e-07 AD=3.564e-13 AS=5.6295e-13
mX90.M1 N_448_X90.M1_d N_160_X90.M1_g N_X90.8_X90.M1_s N_GND_X80.M0_b n
+ L=1.8e-07 W=9.9e-07 AD=5.346e-13 AS=3.564e-13
mX90.M2 N_X90.9_X90.M2_d N_476_X90.M2_g N_448_X90.M2_s N_GND_X80.M0_b n
+ L=1.8e-07 W=9.9e-07 AD=3.564e-13 AS=5.346e-13
mX90.M3 N_GND_X90.M3_d N_I_VALID_X90.M3_g N_X90.9_X90.M3_s N_GND_X80.M0_b n
+ L=1.8e-07 W=9.9e-07 AD=6.0345e-13 AS=3.564e-13
mX90.M4 N_X90.7_X90.M4_d N_I_VALID_X90.M4_g N_GND_X90.M4_s N_GND_X80.M0_b n
+ L=1.8e-07 W=4.5e-07 AD=2.2275e-13 AS=6.0345e-13
mX90.M5 N_X90.10_X90.M5_d N_X90.7_X90.M5_g N_VDD_X90.M5_s N_VDD_X90.M5_b p
+ L=1.8e-07 W=1.98e-06 AD=7.128e-13 AS=9.9225e-13
mX90.M6 N_448_X90.M6_d N_476_X90.M6_g N_X90.10_X90.M6_s N_VDD_X90.M5_b p
+ L=1.8e-07 W=1.98e-06 AD=1.0692e-12 AS=7.128e-13
mX90.M7 N_X90.11_X90.M7_d N_160_X90.M7_g N_448_X90.M7_s N_VDD_X90.M5_b p
+ L=1.8e-07 W=1.98e-06 AD=7.128e-13 AS=1.0692e-12
mX90.M8 N_VDD_X90.M8_d N_I_VALID_X90.M8_g N_X90.11_X90.M8_s N_VDD_X90.M5_b p
+ L=1.8e-07 W=1.98e-06 AD=1.1421e-12 AS=7.128e-13
mX90.M9 N_X90.7_X90.M9_d N_I_VALID_X90.M9_g N_VDD_X90.M9_s N_VDD_X90.M5_b p
+ L=1.8e-07 W=9.9e-07 AD=4.9005e-13 AS=1.1421e-12
mX91.M0 N_X91.8_X91.M0_d N_X91.7_X91.M0_g N_GND_X91.M0_s N_GND_X80.M0_b n
+ L=1.8e-07 W=9.9e-07 AD=3.564e-13 AS=5.6295e-13
mX91.M1 N_449_X91.M1_d N_454_X91.M1_g N_X91.8_X91.M1_s N_GND_X80.M0_b n
+ L=1.8e-07 W=9.9e-07 AD=5.346e-13 AS=3.564e-13
mX91.M2 N_X91.9_X91.M2_d N_219_X91.M2_g N_449_X91.M2_s N_GND_X80.M0_b n
+ L=1.8e-07 W=9.9e-07 AD=3.564e-13 AS=5.346e-13
mX91.M3 N_GND_X91.M3_d N_I_VALID_X91.M3_g N_X91.9_X91.M3_s N_GND_X80.M0_b n
+ L=1.8e-07 W=9.9e-07 AD=6.0345e-13 AS=3.564e-13
mX91.M4 N_X91.7_X91.M4_d N_I_VALID_X91.M4_g N_GND_X91.M4_s N_GND_X80.M0_b n
+ L=1.8e-07 W=4.5e-07 AD=2.2275e-13 AS=6.0345e-13
mX91.M5 N_X91.10_X91.M5_d N_X91.7_X91.M5_g N_VDD_X91.M5_s N_VDD_X91.M5_b p
+ L=1.8e-07 W=1.98e-06 AD=7.128e-13 AS=9.9225e-13
mX91.M6 N_449_X91.M6_d N_219_X91.M6_g N_X91.10_X91.M6_s N_VDD_X91.M5_b p
+ L=1.8e-07 W=1.98e-06 AD=1.0692e-12 AS=7.128e-13
mX91.M7 N_X91.11_X91.M7_d N_454_X91.M7_g N_449_X91.M7_s N_VDD_X91.M5_b p
+ L=1.8e-07 W=1.98e-06 AD=7.128e-13 AS=1.0692e-12
mX91.M8 N_VDD_X91.M8_d N_I_VALID_X91.M8_g N_X91.11_X91.M8_s N_VDD_X91.M5_b p
+ L=1.8e-07 W=1.98e-06 AD=1.1421e-12 AS=7.128e-13
mX91.M9 N_X91.7_X91.M9_d N_I_VALID_X91.M9_g N_VDD_X91.M9_s N_VDD_X91.M5_b p
+ L=1.8e-07 W=9.9e-07 AD=4.9005e-13 AS=1.1421e-12
mX92.M0 N_X92.8_X92.M0_d N_X92.7_X92.M0_g N_GND_X92.M0_s N_GND_X80.M0_b n
+ L=1.8e-07 W=9.9e-07 AD=3.564e-13 AS=5.6295e-13
mX92.M1 N_450_X92.M1_d N_455_X92.M1_g N_X92.8_X92.M1_s N_GND_X80.M0_b n
+ L=1.8e-07 W=9.9e-07 AD=5.346e-13 AS=3.564e-13
mX92.M2 N_X92.9_X92.M2_d N_685_X92.M2_g N_450_X92.M2_s N_GND_X80.M0_b n
+ L=1.8e-07 W=9.9e-07 AD=3.564e-13 AS=5.346e-13
mX92.M3 N_GND_X92.M3_d N_I_VALID_X92.M3_g N_X92.9_X92.M3_s N_GND_X80.M0_b n
+ L=1.8e-07 W=9.9e-07 AD=6.0345e-13 AS=3.564e-13
mX92.M4 N_X92.7_X92.M4_d N_I_VALID_X92.M4_g N_GND_X92.M4_s N_GND_X80.M0_b n
+ L=1.8e-07 W=4.5e-07 AD=2.2275e-13 AS=6.0345e-13
mX92.M5 N_X92.10_X92.M5_d N_X92.7_X92.M5_g N_VDD_X92.M5_s N_VDD_X92.M5_b p
+ L=1.8e-07 W=1.98e-06 AD=7.128e-13 AS=9.9225e-13
mX92.M6 N_450_X92.M6_d N_685_X92.M6_g N_X92.10_X92.M6_s N_VDD_X92.M5_b p
+ L=1.8e-07 W=1.98e-06 AD=1.0692e-12 AS=7.128e-13
mX92.M7 N_X92.11_X92.M7_d N_455_X92.M7_g N_450_X92.M7_s N_VDD_X92.M5_b p
+ L=1.8e-07 W=1.98e-06 AD=7.128e-13 AS=1.0692e-12
mX92.M8 N_VDD_X92.M8_d N_I_VALID_X92.M8_g N_X92.11_X92.M8_s N_VDD_X92.M5_b p
+ L=1.8e-07 W=1.98e-06 AD=1.1421e-12 AS=7.128e-13
mX92.M9 N_X92.7_X92.M9_d N_I_VALID_X92.M9_g N_VDD_X92.M9_s N_VDD_X92.M5_b p
+ L=1.8e-07 W=9.9e-07 AD=4.9005e-13 AS=1.1421e-12
mX93.M0 N_X93.8_X93.M0_d N_X93.7_X93.M0_g N_GND_X93.M0_s N_GND_X80.M0_b n
+ L=1.8e-07 W=9.9e-07 AD=3.564e-13 AS=5.6295e-13
mX93.M1 N_459_X93.M1_d N_446_X93.M1_g N_X93.8_X93.M1_s N_GND_X80.M0_b n
+ L=1.8e-07 W=9.9e-07 AD=5.346e-13 AS=3.564e-13
mX93.M2 N_X93.9_X93.M2_d N_184_X93.M2_g N_459_X93.M2_s N_GND_X80.M0_b n
+ L=1.8e-07 W=9.9e-07 AD=3.564e-13 AS=5.346e-13
mX93.M3 N_GND_X93.M3_d N_I_VALID_X93.M3_g N_X93.9_X93.M3_s N_GND_X80.M0_b n
+ L=1.8e-07 W=9.9e-07 AD=6.0345e-13 AS=3.564e-13
mX93.M4 N_X93.7_X93.M4_d N_I_VALID_X93.M4_g N_GND_X93.M4_s N_GND_X80.M0_b n
+ L=1.8e-07 W=4.5e-07 AD=2.2275e-13 AS=6.0345e-13
mX93.M5 N_X93.10_X93.M5_d N_X93.7_X93.M5_g N_VDD_X93.M5_s N_VDD_X93.M5_b p
+ L=1.8e-07 W=1.98e-06 AD=7.128e-13 AS=9.9225e-13
mX93.M6 N_459_X93.M6_d N_184_X93.M6_g N_X93.10_X93.M6_s N_VDD_X93.M5_b p
+ L=1.8e-07 W=1.98e-06 AD=1.0692e-12 AS=7.128e-13
mX93.M7 N_X93.11_X93.M7_d N_446_X93.M7_g N_459_X93.M7_s N_VDD_X93.M5_b p
+ L=1.8e-07 W=1.98e-06 AD=7.128e-13 AS=1.0692e-12
mX93.M8 N_VDD_X93.M8_d N_I_VALID_X93.M8_g N_X93.11_X93.M8_s N_VDD_X93.M5_b p
+ L=1.8e-07 W=1.98e-06 AD=1.1421e-12 AS=7.128e-13
mX93.M9 N_X93.7_X93.M9_d N_I_VALID_X93.M9_g N_VDD_X93.M9_s N_VDD_X93.M5_b p
+ L=1.8e-07 W=9.9e-07 AD=4.9005e-13 AS=1.1421e-12
mX94.M0 N_X94.8_X94.M0_d N_X94.7_X94.M0_g N_GND_X94.M0_s N_GND_X80.M0_b n
+ L=1.8e-07 W=9.9e-07 AD=3.564e-13 AS=5.6295e-13
mX94.M1 N_453_X94.M1_d N_3_X94.M1_g N_X94.8_X94.M1_s N_GND_X80.M0_b n L=1.8e-07
+ W=9.9e-07 AD=5.346e-13 AS=3.564e-13
mX94.M2 N_X94.9_X94.M2_d N_568_X94.M2_g N_453_X94.M2_s N_GND_X80.M0_b n
+ L=1.8e-07 W=9.9e-07 AD=3.564e-13 AS=5.346e-13
mX94.M3 N_GND_X94.M3_d N_I_VALID_X94.M3_g N_X94.9_X94.M3_s N_GND_X80.M0_b n
+ L=1.8e-07 W=9.9e-07 AD=6.0345e-13 AS=3.564e-13
mX94.M4 N_X94.7_X94.M4_d N_I_VALID_X94.M4_g N_GND_X94.M4_s N_GND_X80.M0_b n